%chk=CC12CC1C1CpdOpNC12.chk
%NProcShared=20
# opt freq b3lyp/6-31g(2df,p)

Title Card Required

0  1
C           1.38469        -0.10837         0.16668
C           2.89152        -0.01995         0.11974
C           3.47567        -1.40429        -0.15639
C           4.25144        -0.45136         0.65790
C           4.95392         0.60204        -0.12214
C           5.01518         1.85780         0.75259
O           5.86047         2.66658         1.02476
N           3.64257         1.93064         0.80615
C           3.51869         1.17861        -0.46233
H           0.97247        -1.07822         0.47396
H           1.00226         0.03832        -0.86041
H           0.89321         0.67210         0.75837
H           3.83156        -1.57620        -1.16425
H           3.07725        -2.26720         0.35643
H           4.68119        -0.79525         1.57883
H           5.84232         0.33220        -0.68377
H           3.19270         2.77786         1.11026
H           3.11541         1.69140        -1.32732

