%chk=qm9100.chk
# opt freq=noraman b3lyp/6-311+g(d,p) geom=connectivity

Title Card Required

0 1
 C                 -6.43575556    3.59477112    0.00000000
 C                 -4.93464056    3.59477112    0.00000000
 C                 -5.68522556    4.89474612    0.00000000
 H                 -6.97235156    3.28489612   -0.91385800
 H                 -4.39807956    3.28500412   -0.91388800
 H                 -5.68544856    5.51427412    0.91394400
 H                 -5.68544856    5.51427412   -0.91394400
 C                 -4.18624702    3.16270911    1.27468801
 H                 -4.08813310    2.09728637    1.28685543
 H                 -3.21454396    3.61053117    1.28687671
 H                 -4.73607654    3.48011101    2.13599141
 C                 -7.18418268    3.16256727    1.27462021
 H                 -8.23915868    3.22637997    1.10772629
 H                 -6.92187611    2.15407579    1.51760211
 H                 -6.91152406    3.80694874    2.08414465

 1 2 1.0 3 1.0 4 1.0 12 1.0
 2 3 1.0 5 1.0 8 1.0
 3 6 1.0 7 1.0
 4
 5
 6
 7
 8 9 1.0 10 1.0 11 1.0
 9
 10
 11
 12 13 1.0 14 1.0 15 1.0
 13
 14
 15

