%chk=Cc1ccccc1CdO.chk
# opt freq b3lyp/6-31g(2df,p) geom=connectivity

Title Card Required

0 1
 C                 -3.58516933    1.40520906   -0.02854127
 C                 -2.19000933    1.40520906   -0.02854127
 C                 -1.49247133    2.61296006   -0.02854127
 C                 -2.19012533    3.82146906   -0.02974027
 C                 -3.58495033    3.82139106   -0.03021927
 C                 -4.28255133    2.61318506   -0.02922327
 H                 -4.13492833    0.45289206   -0.02809127
 H                 -1.63992533    4.77361206   -0.02979927
 H                 -4.13507233    4.77367206   -0.03117227
 H                 -5.38215533    2.61336806   -0.02940327
 C                 -1.42045698    0.07127286   -0.02669969
 H                 -1.25708024   -0.24484487    0.98239774
 H                 -1.99144257   -0.67060948   -0.54485609
 H                 -0.47815936    0.20244753   -0.51636120
 C                  0.04752841    2.61307209   -0.02765341
 O                  0.70150548    3.33542477    0.71855542
 H                  0.52693549    1.91609626   -0.74703448

 1 2 1.5 6 1.5 7 1.0
 2 3 1.5 11 1.0
 3 4 1.5 15 1.0
 4 5 1.5 8 1.0
 5 6 1.5 9 1.0
 6 10 1.0
 7
 8
 9
 10
 11 12 1.0 13 1.0 14 1.0
 12
 13
 14
 15 16 2.0 17 1.0
 16
 17
