%chk=CC1COCCOC1.chk
%NProcShared=20
# opt freq b3lyp/6-31g(2df,p)

Title Card Required

0  1
C           1.02262         0.11324         0.03603
C           2.55140         0.12761         0.01263
C           3.06783        -1.22059        -0.50036
O           4.49066        -1.30604        -0.54623
C           5.04802        -0.58308        -1.64082
C           5.38446         0.86496        -1.28261
O           4.41745         1.57867        -0.51757
C           3.05983         1.30141        -0.83022
H           0.64845        -0.71804         0.64326
H           0.61269         0.00735        -0.97397
H           0.62994         1.04102         0.46558
H           2.92251         0.25893         1.03759
H           2.64806        -1.45846        -1.48554
H           2.72939        -2.01450         0.17649
H           4.38343        -0.62667        -2.51097
H           5.97182        -1.09357        -1.93689
H           5.57812         1.43029        -2.20155
H           6.31060         0.88654        -0.69866
H           2.92098         1.14231        -1.90575
H           2.49927         2.20611        -0.56943

