%NProcShared=20
%Chk=CC1pCpCpCppCpC1pCpC.chk
# opt freq b3lyp/6-31g(2df,p)

 Title

0 1
C         -7.05446        1.46767       -1.13932
C         -5.89336        0.45173       -1.22672
C         -6.25272       -0.75509       -2.12246
C         -4.42388        0.97781       -1.21776
C         -3.37061        0.27671       -2.10490
C         -4.17235        2.49946       -1.12175
C         -4.99034        0.22347        0.02574
C         -5.28337        1.02000        1.31709
C         -4.48163       -1.20276        0.33395
H         -7.29780        1.82649       -2.16138
H         -6.88645        2.36156       -0.52059
H         -7.95054        0.95717       -0.72822
H         -6.49904       -0.38801       -3.14087
H         -7.15177       -1.25736       -1.70773
H         -5.48237       -1.53116       -2.24237
H         -3.40223        0.72064       -3.12200
H         -3.47207       -0.81147       -2.23012
H         -2.36160        0.45751       -1.67853
H         -4.20099        2.93515       -2.14250
H         -3.16038        2.67205       -0.69902
H         -4.87616        3.08125       -0.50833
H         -5.65110        2.04929        1.19283
H         -4.35409        1.08246        1.92134
H         -6.04762        0.47618        1.91102
H         -4.24701       -1.84343       -0.52895
H         -5.24885       -1.73834        0.93151
H         -3.55532       -1.13206        0.94184

