%chk=CCCpdOpNCCpCpC.chk
# opt freq b3lyp/6-31g(2df,p) geom=connectivity

Title Card Required

0 1
 C                 -5.37328111    0.14734774    0.00000000
 H                 -5.01660827    0.65174593    0.87365150
 H                 -5.01660827    0.65174593   -0.87365150
 H                 -6.44328111    0.14736092    0.00000000
 C                 -4.85996539   -1.30458441    0.00000000
 H                 -3.78996539   -1.30459706   -0.00000262
 H                 -5.21663641   -1.80898196    0.87365262
 C                 -5.37331032   -2.03054242   -1.25740286
 O                 -4.89877675   -1.35493141   -2.42499340
 N                 -4.88113083   -3.41569856   -1.25874848
 H                 -5.40735423   -3.95706592   -0.60299676
 C                 -5.03552456   -3.98926523   -2.60339856
 H                 -4.23518697   -3.65270752   -3.22876938
 H                 -5.96981473   -3.67539885   -3.01991959
 C                 -5.00447878   -5.52626873   -2.51253375
 H                 -5.85983613   -5.86874538   -1.96849924
 C                 -3.72182452   -5.97173940   -1.78592938
 H                 -3.86784099   -5.90017199   -0.72835796
 H                 -3.49739683   -6.98477677   -2.04724818
 H                 -2.90904123   -5.33978463   -2.07733373
 C                 -5.02501216   -6.12489058   -3.93127624
 H                 -5.04126612   -7.19286873   -3.86757009
 H                 -5.89753541   -5.78516029   -4.44914351
 H                 -4.15050160   -5.81256809   -4.46286438

 1 2 1.0 3 1.0 4 1.0 5 1.0
 2
 3
 4
 5 6 1.0 7 1.0 8 1.0
 6
 7
 8 9 2.0 10 1.0
 9
 10 11 1.0 12 1.0
 11
 12 13 1.0 14 1.0 15 1.0
 13
 14
 15 16 1.0 17 1.0 21 1.0
 16
 17 18 1.0 19 1.0 20 1.0
 18
 19
 20
 21 22 1.0 23 1.0 24 1.0
 22
 23
 24

