%NProcShared=20
%Chk=CCpCppCpC1CO1.chk
# opt freq b3lyp/6-31g(2df,p)

 Title

0 1
C          1.00061        0.71732        2.10902
C          2.51774        0.48216        2.01032
C          2.91933        0.42887        0.51685
C          3.25715        1.65803        2.67535
C          2.85892       -0.80862        2.80776
C          2.96853       -2.12703        2.13106
O          4.10570       -1.35466        2.48015
H          0.71131        1.65630        1.58901
H          0.68253        0.79683        3.17135
H          0.44650       -0.12597        1.64273
H          2.67804        1.39156        0.01608
H          2.36421       -0.36450       -0.02502
H          4.01007        0.24993        0.40458
H          3.01254        2.61672        2.16851
H          4.35711        1.50668        2.62282
H          2.96974        1.75021        3.74538
H          2.67510       -0.84420        3.90309
H          2.97542       -2.22747        1.02884
H          2.97562       -3.03175        2.77352

