%NProcShared=20
%Chk=CCpOppCdOpC1pOpCC1.chk
# opt freq b3lyp/6-31g(2df,p)

 Title

0 1
C          0.91394       -0.26222        0.23429
C          2.41519        0.02323       -0.03720
O          2.52536        1.30371       -0.61136
C          3.21335       -0.01080        1.25465
O          2.69457       -0.28546        2.32637
C          3.09834       -0.98186       -1.01685
O          4.39741       -0.64661       -1.42899
C          2.75010       -2.45693       -1.12427
C          2.28316       -1.46513       -2.20625
H          0.50583        0.49576        0.93725
H          0.75330       -1.25719        0.69597
H          0.31504       -0.18627       -0.69535
H          2.21542        1.97195        0.05605
H          4.27392        0.21927        1.23239
H          5.00998       -1.05554       -0.76468
H          2.08259       -2.71636       -0.28097
H          3.69001       -3.02280       -1.30302
H          1.18194       -1.58721       -2.19202
H          2.82482       -1.77709       -3.12480

