%chk=CCtCCCCpCpOC.chk
%NProcShared=20
# opt freq b3lyp/6-31g(2df,p)

Title Card Required

0  1
C           1.07334        -0.06478        -0.02062
C           2.59334        -0.06478        -0.02062
C           3.89719        -0.06478        -0.02062
C           5.41719        -0.06478        -0.02062
C           5.98022         1.29743        -0.38769
C           7.51535         1.26648        -0.42141
C           8.01967         0.24633        -1.44511
O           7.96385         2.58680        -0.75509
C           9.37710         2.73279        -0.68269
H           0.70017        -0.76977         0.72742
H           0.70020        -0.36008        -1.00521
H           0.70023         0.93557         0.21590
H           5.70783        -0.83467        -0.74053
H           5.77107        -0.37728         0.96824
H           5.64038         2.05353         0.33446
H           5.58619         1.63134        -1.35579
H           7.88099         1.01313         0.57977
H           7.67997         0.51543        -2.44950
H           7.68862        -0.76969        -1.21741
H           9.11089         0.20266        -1.46817
H           9.62692         3.78446        -0.85094
H           9.86800         2.15361        -1.46840
H           9.75003         2.43102         0.29960

