%NProcShared=20
%Chk=CCtCCpCppCCpCC.chk
# opt freq b3lyp/6-31g(2df,p)

 Title

0 1
C          1.12869       -0.27484       -0.57745
C          2.57114       -0.18632       -0.35273
C          3.76014       -0.11304       -0.16578
C          5.21705       -0.02227        0.06707
C          5.59609        1.47285        0.03442
C          5.51278       -0.63008        1.47160
C          6.98798       -0.63561        1.88727
C          5.96651       -0.75162       -1.08705
C          5.66663       -2.25081       -1.20286
H          0.93057       -0.91496       -1.46161
H          0.71947        0.74069       -0.75655
H          0.64198       -0.71714        0.31604
H          5.06592        2.03252        0.83574
H          5.32028        1.92637       -0.94300
H          6.68788        1.61780        0.16768
H          4.94490       -0.06066        2.24122
H          5.14546       -1.67812        1.51238
H          7.39699        0.39326        1.93921
H          7.59813       -1.24363        1.18907
H          7.07878       -1.08643        2.89799
H          7.06361       -0.62655       -0.96574
H          5.69070       -0.27643       -2.05516
H          5.99171       -2.79583       -0.29366
H          6.22493       -2.66993       -2.06637
H          4.58351       -2.42600       -1.37097

