%chk=Cn1ccpOCdOpnn1_2.chk
# opt freq b3lyp/6-31g(2df,p)

Title Card Required

0 1
 C                 -7.14179102   -1.66818151    0.00618761
 H                 -6.78513659   -2.67699151    0.00618761
 H                 -6.78511818   -1.16378332   -0.86746389
 H                 -8.21179102   -1.66816833    0.00618761
 N                 -6.65178254   -0.97522325    1.20643781
 N                 -7.11634252    0.34545172    1.20515898
 N                 -5.90847305    0.89279660    1.47959232
 C                 -5.18178502   -0.97756847    1.20778190
 H                 -4.82670265   -1.98655780    1.18026753
 C                 -4.91137647   -0.05624668    2.28825017
 O                 -3.65281202    0.24449227    1.15506322
 C                 -2.31162360   -0.13167663    1.16769560
 O                 -1.08430660   -0.13167663    1.16769560
 H                 -2.90376860   -1.07108063    1.16773460

 1 2 1.0 3 1.0 4 1.0 5 1.0
 2
 3
 4
 5 6 1.0 8 1.0
 6 7 2.0
 7 10 1.0
 8 9 1.0 10 2.0
 9
 10 11 1.0
 11 12 1.0
 12 13 2.0 14 1.0
 13
 14

