%NProcShared=20
%Chk=CNCpdNpNCpdOpCO_2.chk
# opt freq b3lyp/6-31g(2df,p)

 Title

0 1
C         -6.76547        0.33473       -1.59114
N         -5.48753       -0.20811       -1.18711
C         -4.23352        0.27411       -1.67828
N         -4.18120        1.24308       -2.52878
N         -3.02972       -0.34272       -1.20536
C         -1.76641        0.01250       -1.58592
O         -1.57833        0.91769       -2.38619
C         -0.57111       -0.70533       -1.02244
O          0.14856       -1.29515       -2.06838
H         -7.58615       -0.20548       -1.07319
H         -6.90001        0.21378       -2.68674
H         -6.82428        1.40979       -1.31934
H         -5.48665       -0.98419       -0.50834
H         -5.01586        1.71824       -2.89824
H         -3.13395       -1.11210       -0.52696
H         -0.89053       -1.49173       -0.30331
H          0.06653        0.03800       -0.49417
H          0.94918       -1.70907       -1.65281

