%chk=CtCC1C2CpCpN3C1C23.chk
%NProcShared=20
# opt freq b3lyp/6-31g(2df,p)

Title Card Required

0  1
C           1.13319        -0.11535         0.04575
C           2.32342        -0.09567         0.12117
C           3.76081         0.01184         0.07539
C           4.46606         1.21550         0.70967
C           4.24575         0.91000         2.19733
C           4.88345         1.92043         3.15818
N           5.12682        -0.22435         2.04382
C           4.62686        -0.86726         0.88511
C           5.61692         0.29421         0.75345
H           0.06757        -0.09780        -0.03469
H           4.06602        -0.09935        -0.98668
H           4.29363         2.19539         0.28130
H           3.24502         0.65620         2.56529
H           5.90685         2.19043         2.86499
H           4.93203         1.51832         4.17751
H           4.29003         2.83690         3.18269
H           4.67627        -1.92204         0.73130
H           6.59896         0.67544         0.93743

