%NProcShared=20
%Chk=CtCCpCppCCCpOC.chk
# opt freq b3lyp/6-31g(2df,p)

 Title

0 1
C         -7.80574        2.01152       -0.89510
C         -8.51897        1.06238       -1.10718
C         -9.39164       -0.09731       -1.36554
C         -9.42404       -0.27095       -2.91264
C         -8.73957       -1.32475       -0.67439
C         -9.54677       -2.62864       -0.78312
C         -8.82786       -3.77715       -0.07996
O        -10.64030        0.19994       -0.73428
C        -11.79544       -0.15999       -1.46428
H         -7.17983        2.84424       -0.70908
H         -8.39737       -0.44185       -3.30453
H         -9.82531        0.64314       -3.40183
H        -10.04052       -1.13351       -3.23434
H         -7.72859       -1.49361       -1.11033
H         -8.60998       -1.09633        0.40813
H         -9.68814       -2.90960       -1.84710
H        -10.53939       -2.49862       -0.30349
H         -7.83489       -3.95429       -0.54553
H         -9.43189       -4.70473       -0.16864
H         -8.68953       -3.54545        0.99769
H        -12.67441       -0.03518       -0.79956
H        -11.79005       -1.22612       -1.76969
H        -11.94734        0.52027       -2.32872

