%chk=CtCCCCpCppCpCC.chk
%NProcShared=20
# opt freq b3lyp/6-31g(2df,p)

Title Card Required

0  1
C           1.06851         0.07102        -0.01620
C           2.37237         0.07102        -0.01620
C           3.89237         0.07102        -0.01620
C           4.45847         0.38106        -1.38993
C           6.01090         0.37996        -1.38505
C           6.51728         1.45407        -0.40097
C           6.51728        -1.01271        -0.95770
C           6.49874         0.70434        -2.82233
C           8.01669         0.73797        -2.97133
H           0.00289         0.07105        -0.01634
H           4.19354        -0.91726         0.34153
H           4.19354         0.80985         0.73132
H           4.08059         1.35576        -1.72788
H           4.08059        -0.35401        -2.11377
H           6.20082         1.25750         0.62827
H           6.14386         2.44426        -0.68127
H           7.60965         1.49692        -0.36479
H           6.20082        -1.27725         0.05619
H           7.60964        -1.06694        -0.94343
H           6.14386        -1.78652        -1.63612
H           6.09678         1.67540        -3.13676
H           6.09678        -0.03755        -3.52336
H           8.46618         1.50251        -2.33428
H           8.29029         0.97135        -4.00539
H           8.46618        -0.22608        -2.72441

