%NProcShared=4
%chk=CtCC1NdCOC1CC_avo.chk
# opt freq b3lyp/6-31g(2df,p)

Title Card Required

0 1
C         -7.48510        1.50793       -1.65548
C         -6.45052        2.03673       -1.44241
C         -5.14481        2.66522       -1.15727
N         -4.23506        1.59491       -0.71576
C         -3.41851        1.24302       -1.71984
O         -3.62112        2.04272       -2.80481
C         -4.34797        3.19367       -2.37772
C         -5.16537        3.77923       -3.55412
C         -5.92017        5.06108       -3.15214
H         -8.40217        1.00404       -1.85835
H         -5.24351        3.42519       -0.37788
H         -2.69714        0.43812       -1.51200
H         -3.62060        3.93368       -2.03010
H         -4.48037        4.01864       -4.37086
H         -5.86906        3.03840       -3.94066
H         -6.44995        5.47093       -4.01483
H         -5.22332        5.81869       -2.78643
H         -6.65328        4.85589       -2.36921

