%NProcShared=20
%Chk=CtCCpCppCdOpCpCpC.chk
# opt freq b3lyp/6-31g(2df,p)

 Title

0 1
C          0.69578        2.25814       -1.11184
C         -0.11779        1.82217       -0.33524
C         -1.11776        1.28498        0.61911
C         -1.40082       -0.18075        0.23104
C         -0.52291        1.28873        2.02032
O          0.59823        1.72089        2.24754
C         -2.40582        2.19090        0.57525
C         -3.02650        2.29343       -0.83469
C         -3.50929        1.75475        1.56129
H          1.40918        2.64076       -1.79327
H         -0.46377       -0.77896        0.27163
H         -1.79948       -0.26068       -0.80144
H         -2.12427       -0.65199        0.92800
H         -1.09255        0.88351        2.84924
H         -2.09793        3.22056        0.86856
H         -3.88177        3.00266       -0.82323
H         -3.40496        1.31078       -1.18383
H         -2.29159        2.67920       -1.57093
H         -4.36115        2.46669        1.51504
H         -3.14699        1.76092        2.60807
H         -3.89694        0.74484        1.31513

