%chk=NdC1CCN1CpdOpCO.chk
%NProcShared=20
# opt freq b3lyp/6-31g(2df,p)

Title Card Required

0  1
N           1.03621        -0.14321         0.05911
C           2.30962        -0.05639         0.00829
C           3.32198         1.07148        -0.04096
C           4.26193        -0.03391        -0.58977
N           3.30189        -0.99163        -0.00903
C           3.48911        -2.33495         0.28977
O           4.56476        -2.89880         0.07441
C           2.31087        -3.06888         0.94932
O           2.61936        -4.40828         1.33426
H           0.62060         0.79690         0.02345
H           3.60475         1.42371         0.95922
H           3.11447         1.91883        -0.69255
H           5.26721        -0.06667        -0.16954
H           4.29965        -0.08094        -1.68578
H           1.46479        -3.11029         0.26075
H           2.01951        -2.54118         1.86179
H           3.02203        -4.84207         0.55969

