%chk=NtCCpOpC1pCtNpCO1.chk
%NProcShared=20
# opt freq b3lyp/6-31g(2df,p)

Title Card Required

0  1
N           0.93199        -0.04315         0.05927
C           2.19296        -0.04315         0.05927
C           3.71296        -0.04315         0.05927
O           4.17829        -0.46240        -1.24560
C           4.28356         1.22866         0.48435
C           4.33603         1.26301         1.90508
N           4.18644         0.99079         3.02985
C           5.13681         1.90735        -0.58333
O           3.94487         2.49795        -0.08864
H           4.03865        -0.85845         0.71897
H           3.72323         0.09187        -1.90670
H           5.06617         1.63013        -1.63726
H           6.15250         2.19261        -0.35280

