%NProcShared=20
%Chk=OCC1CCdCCOC1.chk
# opt freq b3lyp/6-31g(2df,p)

 Title

0 1
O         -3.95439        0.59360        0.75289
C         -3.13649        1.24523        1.72891
C         -1.96144        1.98463        1.04051
C         -1.29195        3.02909        1.99777
C          0.01015        2.49767        2.53265
C         -0.03327        1.31018        3.11054
C          0.51560        0.18128        2.28781
O         -0.49941       -0.10359        1.27716
C         -0.95755        0.96993        0.38139
H         -4.33692        1.26970        0.16543
H         -3.75526        1.96215        2.27509
H         -2.75852        0.50312        2.43640
H         -2.39895        2.56766        0.22578
H         -1.96189        3.31793        2.81140
H         -1.08220        3.93692        1.42682
H          0.83474        2.70687        1.85349
H         -0.93391        1.02245        3.64786
H          0.66676       -0.71041        2.90224
H          1.45517        0.45442        1.79864
H         -1.47389        0.48089       -0.44930
H         -0.09142        1.49534       -0.03030

