%chk=OCC1CCCOCC1.chk
# opt freq b3lyp/6-31g(2df,p) geom=connectivity

Title Card Required

0 1
 C                 -4.73683945    0.41178817   -0.00010182
 H                 -4.38016661    0.91618636    0.87354968
 H                 -4.38016661    0.91618636   -0.87375333
 C                 -4.22352373   -1.04014399   -0.00010182
 H                 -4.58019583   -1.54454245    0.87354983
 C                 -4.73686711   -1.76610067   -1.25750608
 H                 -4.38021188   -2.77491039   -1.25750657
 H                 -4.38019582   -1.26170188   -2.13115787
 C                 -6.27686711   -1.76608240   -1.25750376
 H                 -6.63354410   -2.58874111   -1.84138233
 H                 -6.63353357   -1.86040096   -0.25311686
 C                 -6.79018524   -0.44630248   -1.86271897
 H                 -7.56333285   -0.65610413   -2.57203276
 H                 -5.98409354    0.05871128   -2.35269578
 O                 -7.22988393    0.42559955   -0.76863095
 C                 -6.14420022    0.97430780   -0.05428886
 H                 -5.78752738    1.47870599    0.81936265
 H                 -5.78752738    1.47870599   -0.92794036
 C                 -2.68352373   -1.04016219   -0.00010268
 H                 -2.32686931   -2.04897204    0.00044360
 H                 -2.32685141   -0.53623705   -0.87402734
 O                 -2.20684887   -0.36542658    1.16712178
 H                 -1.28192546   -0.58131548    1.30679520

 1 2 1.0 3 1.0 4 1.0 16 1.0
 2
 3
 4 5 1.0 6 1.0 19 1.0
 5
 6 7 1.0 8 1.0 9 1.0
 7
 8
 9 10 1.0 11 1.0 12 1.0
 10
 11
 12 13 1.0 14 1.0 15 1.0
 13
 14
 15 16 1.0
 16 17 1.0 18 1.0
 17
 18
 19 20 1.0 21 1.0 22 1.0
 20
 21
 22 23 1.0
 23

