%chk=OdC1CC23CCCC12C3.chk
%NProcShared=20
# opt freq b3lyp/6-31g(2df,p)

Title Card Required

0  1
O           1.06731         0.08041        -0.09412
C           2.13648        -0.41050         0.24089
C           3.12637        -1.50448        -0.17848
C           3.96257        -1.09174         0.99058
C           5.26801        -0.35549         0.93192
C           5.03440         1.02478         1.59137
C           3.52759         1.25983         1.57759
C           2.91913        -0.13951         1.45471
C           3.42013        -1.39954         2.32599
H           3.59759        -1.44900        -1.15352
H           2.61020        -2.46956        -0.05822
H           5.61503        -0.27449        -0.09817
H           6.03200        -0.88273         1.51763
H           5.62670         1.79338         1.07955
H           5.33467         1.04177         2.64508
H           3.30181         2.01249         0.79711
H           3.12541         1.69535         2.49384
H           2.92389        -2.37856         2.32157
H           4.22820        -1.47005         3.05691

