%NProcShared=20
%Chk=OdCCn1cccc1O.chk
# opt freq b3lyp/6-31g(2df,p)

 Title

0 1
O         -2.71032        0.27683        7.71549
C         -1.50956        0.14325        7.54281
C         -0.65683        1.37363        7.37900
N          0.78851        1.15927        7.17281
C          1.64113        2.19541        7.01516
C          2.93173        1.73903        6.83925
C          2.87627        0.36459        6.88999
C          1.55081        0.03828        7.09528
O          1.09765       -1.22379        7.20108
H         -1.12322       -0.86007        7.51710
H         -0.78985        1.99659        8.29007
H         -1.05217        1.94129        6.50879
H          1.34501        3.23706        7.02650
H          3.81583        2.34429        6.69032
H          3.70780       -0.32032        6.78876
H          1.69402       -1.98302        7.13676

