%chk=OdCCC12CdCCN1C2.chk
%NProcShared=20
# opt freq b3lyp/6-31g(2df,p)

Title Card Required

0  1
O           1.08287        -0.08919         0.00949
C           2.30129        -0.12589         0.10268
C           3.18121         0.83967        -0.62810
C           4.67238         0.91283        -0.38328
C           5.21233         2.25842        -0.59526
C           6.53754         2.38637        -0.45957
C           7.12214         1.04098        -0.25944
N           5.96471         0.19585         0.20153
C           5.16461        -0.49986        -0.67777
H           2.78710        -0.91004         0.70064
H           2.74241         1.81951        -0.40383
H           3.00068         0.69228        -1.70946
H           4.56563         3.12276        -0.65255
H           7.06579         3.32222        -0.41843
H           7.85504         1.08339         0.55397
H           7.68275         0.75546        -1.16889
H           4.70937        -1.31758        -0.10660
H           5.31049        -0.83943        -1.69118

