%chk=qm9900.chk
# opt freq b3lyp/6-31g(2df,p) geom=connectivity

Title Card Required

0 1
 C                 -5.12767117    0.04545479    0.93523574
 C                 -6.66767117    0.04547377    0.93523574
 H                 -7.02434375   -0.46061796    1.80790740
 H                 -7.02432508    1.05428205    0.93719174
 H                 -7.02434422   -0.45722963    0.06060803
 C                 -5.92170332    1.64740641    1.25740497
 H                 -6.27868398    1.14322506    2.13105591
 H                 -6.27804991    2.65632517    1.25721713
 C                 -4.38170342    1.64691794    1.25767558
 H                 -4.02472362    2.15102671    0.38398241
 H                 -4.02503055    2.15138839    2.13128535
 N                 -3.88592983    0.28469597    1.24742150
 C                 -4.12963172   -0.65129879    1.66425893
 H                 -3.82181430   -0.92057074    2.65301626
 C                 -2.74342398    0.16831365    0.32979656
 H                 -1.85496776    0.50500857    0.82191653
 H                 -2.62356640   -0.85393268    0.03731306
 H                 -2.92011825    0.76915147   -0.53777076

 1 2 1.0 6 1.0 13 2.0
 2 3 1.0 4 1.0 5 1.0
 3
 4
 5
 6 7 1.0 8 1.0 9 2.0
 7
 8
 9 10 1.0 11 1.0 12 1.0
 10
 11
 12 15 1.0 13 1.0
 13 14 1.0
 14
 15 16 1.0 17 1.0 18 1.0
 16
 17
 18

