%chk=C1C2C3CN1CC1C2C31.chk
%NProcShared=20
# opt freq b3lyp/6-31g(2df,p)

Title Card Required 

0  1
C          -0.88213         1.35651         0.64244
C          -1.02898        -0.19038         0.98930
C           0.57022        -0.42561         1.13394
C           1.29798         0.84714         0.67306
N           0.31508         1.49678        -0.21003
C           0.14607         0.69737        -1.48201
C           0.07233        -0.81992        -1.27933
C          -0.86855        -1.22706        -0.17907
C           0.56028        -1.36891         0.02116
H          -0.74114         1.88930         1.59833
H          -1.77044         1.81525         0.18965
H          -2.02079        -0.14703         0.49626
H           0.92723        -0.84810         2.07468
H           2.25004         0.65575         0.16516
H           1.51471         1.49332         1.53283
H           0.97162         0.93273        -2.15816
H          -0.77762         1.02105        -1.98123
H           0.32997        -1.41293        -2.14720
H          -1.42166        -2.15226        -0.04148
H           0.93585        -2.36713         0.19687

