%chk=C1dCn2cccc21.chk
%NProcShared=20
# opt freq b3lyp/6-31g(2df,p)

Title Card Required 

0  1
C           2.04408        -0.95519        -0.00655
C           2.36038         0.36294        -0.15361
N           3.15691         0.05456        -1.23526
C           3.02618         0.06648        -2.59614
C           3.50730        -1.17944        -3.02001
C           3.63863        -2.03136        -1.85814
C           3.16546        -1.22254        -0.87585
H           1.24092        -1.49282         0.49275
H           1.98854         1.31143         0.21088
H           2.59764         0.90769        -3.12306
H           3.66174        -1.47552        -4.04865
H           3.99494        -3.04888        -1.81123

