%chk=CC12CONpC1pC2CtN.chk
%NProcShared=20
# opt freq b3lyp/6-31g(2df,p)

Title Card Required 

0  1
C           1.07449        -0.00853         0.03750
C           2.56830        -0.09035         0.01515
C           3.12872        -1.48486         0.14724
O           4.51887        -1.18484         0.21273
N           4.57519         0.29502         0.03868
C           3.45338         0.74730         0.98028
C           3.50649         0.55503        -1.05679
C           3.71897        -0.15193        -2.30880
N           3.81717        -0.73251        -3.31326
H           0.67481        -0.52600         0.91799
H           0.65372        -0.49534        -0.84750
H           0.71858         1.02422         0.06756
H           2.90611        -2.10701        -0.72819
H           2.80543        -2.01572         1.04669
H           3.28361         1.83508         0.98516
H           3.53940         0.42448         2.02336
H           3.34918         1.62701        -1.24549

