%chk=CC12CdNCN1C1CC12.chk
%NProcShared=20
# opt freq b3lyp/6-31g(2df,p)

Title Card Required 

0  1
C           0.81886        -0.07702        -0.02584
C           2.34308         0.02147        -0.41445
C           2.44230         1.64186        -0.31203
N           3.53858         2.28154        -0.13516
C           4.44616         1.16064         0.02607
N           3.61717         0.02721         0.45054
C           4.13855        -1.24404        -0.02075
C           3.48416        -2.46433        -0.57861
C           2.63476        -1.44102        -0.00951
H           0.24548         0.85181        -0.08180
H           0.64388        -0.47881         0.97737
H           0.33950        -0.72151        -0.77805
H           1.51095         2.24558        -0.37240
H           5.17064         1.40244         0.81098
H           5.00869         1.03550        -0.91208
H           4.95372        -1.58252         0.60790
H           3.53532        -3.37528         0.02995
H           3.32555        -2.65728        -1.62207
H           1.84203        -2.00415         0.46390

