%chk=CC1COC2NCCdC12.chk
%NProcShared=20
# opt freq b3lyp/6-31g(2df,p)

Title Card Required 

0  1
C           1.07938         0.06397        -0.01255
C           2.60574         0.08606         0.07014
C           3.18195        -1.16232         0.75686
O           4.12418        -0.78026         1.80304
C           4.14302         0.65381         1.88065
N           4.64700         1.81706         2.61878
C           4.06283         3.01252         1.96798
C           3.16656         2.50755         0.88810
C           3.19771         1.15163         0.88825
H           0.73939        -0.78220        -0.62235
H           0.68912         0.97651        -0.47778
H           0.61749        -0.03708         0.97547
H           2.99442         0.12424        -0.95620
H           3.77897        -1.74952         0.05490
H           2.39205        -1.82940         1.13762
H           3.83115         0.43456         2.88820
H           5.64304         1.87669         2.70861
H           4.86412         3.63730         1.56199
H           3.48204         3.61891         2.67697
H           2.60147         3.13044         0.22633

