%chk=Cc1cccpONpcn1.chk
%NProcShared=20
# opt freq b3lyp/6-31g(2df,p)

Title Card Required 

0  1
C           2.42251        -0.09101        -0.00416
C           0.92347        -0.06775        -0.00039
C           0.19777        -1.25591        -0.00386
C          -1.19561        -1.19862        -0.01095
C          -1.83578         0.03519         0.00002
O          -3.19295         0.23722         0.06055
N          -3.94477        -1.00619        -0.06881
C          -1.03195         1.16903         0.00247
N           0.32585         1.14656         0.00155
H           2.81019        -1.11496        -0.00650
H           2.80755         0.41589         0.88589
H           2.80038         0.41664        -0.89685
H           0.69873        -2.21740         0.00002
H          -1.75720        -2.12755        -0.02214
H          -4.89716        -0.63973        -0.10619
H          -3.85381        -1.39113         0.87186
H          -1.46971         2.16264         0.01192

