%chk=CC1C2CC2CC2CN21.chk
%NProcShared=20
# opt freq b3lyp/6-31g(2df,p)

Title Card Required 

0  1
C           1.07706         0.12473         0.00365
C           2.57796         0.12454         0.34699
C           3.29715        -1.11587        -0.08601
C           4.67489        -1.58701        -0.57056
C           4.51418        -1.24661         0.86132
C           5.25165         0.00514         1.29616
C           4.53467         1.30346         0.99429
C           4.48736         1.69195        -0.45361
N           3.24658         1.41726         0.24149
H           0.60771        -0.77003         0.44186
H           0.85349         0.11879        -1.06494
H           0.57001         0.97961         0.46919
H           2.48664         0.00315         1.43922
H           2.59689        -1.84951        -0.45682
H           5.24249        -0.97212        -1.23890
H           4.80100        -2.64801        -0.76838
H           4.46884        -2.00462         1.62371
H           6.22090         0.03084         0.77861
H           5.49824        -0.04569         2.36530
H           4.62586         2.04321         1.77467
H           4.88406         1.02140        -1.19762
H           4.72591         2.72927        -0.66811

