%chk=CC1CNCpdNpC2CC12.chk
%NProcShared=20
# opt freq b3lyp/6-31g(2df,p)

Title Card Required 

0  1
C           1.16069         0.07882         0.01473
C           2.68618        -0.03398         0.01409
C           3.06489        -1.44599        -0.46798
N           4.51070        -1.59665        -0.65367
C           5.01294        -0.73373        -1.56744
N           5.34488        -1.10117        -2.76616
C           4.89359         0.71400        -1.30817
C           4.61330         1.59363        -0.12825
C           3.42907         1.03098        -0.80703
H           0.73402        -0.72846         0.62677
H           0.74323        -0.02096        -0.99203
H           0.81264         1.02434         0.44050
H           3.00162         0.07850         1.06108
H           2.58738        -1.62414        -1.43890
H           2.70234        -2.20552         0.22944
H           4.99342        -1.53612         0.24008
H           5.18814        -2.11337        -2.80141
H           5.66005         1.26735        -1.84315
H           4.75620         2.66393        -0.28319
H           4.90323         1.26037         0.85336
H           2.79357         1.68272        -1.39390

