%chk=CC1C2dCC1CpdOpC2O.chk
%NProcShared=20
# opt freq b3lyp/6-31g(2df,p)

Title Card Required 

0  1
C           0.90437        -0.28055        -0.39061
C           2.19490        -1.03393        -0.52091
C           3.57595        -0.90775        -1.17520
C           3.67347        -2.24575        -0.66894
C           2.55988        -2.41360        -1.70878
C           3.17128        -1.83081        -3.05793
O           3.10331        -2.24424        -4.23464
C           3.77800        -0.51056        -2.65059
O           2.91741         0.55217        -2.97454
H           0.99882         0.62910         0.23029
H           0.24323        -0.92562         0.20736
H           0.41921        -0.02060        -1.32327
H           2.61772        -0.52919         0.38376
H           3.33709        -2.75851         0.29062
H           2.42324        -3.49975        -1.77437
H           4.83197        -0.37818        -2.89316
H           2.02655         0.17541        -3.10508

