%chk=CC1c2cccn21.chk
%NProcShared=20
# opt freq b3lyp/6-31g(2df,p)

Title Card Required 

0  1
C           0.99249        -0.06663         0.08483
C           2.42707        -0.47630         0.01666
C           3.06815        -0.69970        -1.19006
C           3.77983        -0.53717        -2.28185
C           3.79220        -1.85921        -2.72688
C           3.18298        -2.61696        -1.72702
N           2.63753        -1.85469        -0.70207
H           0.85584         0.94606         0.48095
H           0.44858        -0.76360         0.72616
H           0.53351        -0.08474        -0.91233
H           3.08615         0.29650         0.40286
H           4.17795         0.37107        -2.70234
H           4.19278        -2.23286        -3.66007
H           2.99217        -3.68463        -1.73299

