%chk=Cc1cccpNpnc1N.chk
%NProcShared=20
# opt freq b3lyp/6-31g(2df,p)

Title Card Required 

0  1
C           0.95508        -0.00875        -0.13789
C           2.45486        -0.03100        -0.09643
C           3.15925         1.17451        -0.07140
C           4.52581         1.15262         0.17192
C           5.18256        -0.05956         0.20430
N           6.56415        -0.07560         0.42714
N           4.52858        -1.24266         0.13535
C           3.17638        -1.21486         0.03517
N           2.51823        -2.44896        -0.04156
H           0.56910         1.00880        -0.25230
H           0.56251        -0.39818         0.80899
H           0.57312        -0.61234        -0.96563
H           2.65275         2.12123        -0.21289
H           5.06444         2.08499         0.31482
H           7.06220         0.72817         0.06528
H           6.95269        -0.96996         0.15487
H           3.12858        -3.19419         0.26948
H           1.59511        -2.46781         0.37152

