%chk=CC1dNCC2CCCC12.chk
%NProcShared=20
# opt freq b3lyp/6-31g(2df,p)

Title Card Required 

0  1
C           1.07498         0.05446        -0.18417
C           2.56518         0.02060        -0.23908
N           3.26632         1.13790        -0.06411
C           4.69582         0.75018         0.03609
C           4.79300        -0.78009         0.02645
C           5.63882        -2.05220         0.18961
C           4.73804        -3.19859        -0.32759
C           3.31094        -2.75545        -0.06432
C           3.34947        -1.23862        -0.06751
H           0.68974         1.07780        -0.21552
H           0.75349        -0.38625         0.76990
H           0.66261        -0.53636        -1.00235
H           5.19179         1.25136         0.86733
H           5.11643         1.15845        -0.90336
H           5.40847        -0.62349        -0.85288
H           6.02529        -2.23872         1.19064
H           6.50244        -2.06224        -0.49896
H           4.97821        -4.14316         0.17544
H           4.86778        -3.35942        -1.40504
H           3.10882        -3.08834         0.97087
H           2.56714        -3.23846        -0.69749
H           2.87025        -1.26061         0.91370

