%chk=CC1dCCpdNpCC1O.chk
%NProcShared=20
# opt freq b3lyp/6-31g(2df,p)

Title Card Required 

0  1
C           0.99031        -0.02533         0.06563
C           2.48100        -0.06452         0.04066
C           3.21251        -1.18294        -0.01151
C           4.60821        -0.72833        -0.01739
N           5.64770        -1.46247         0.16392
C           4.70197         0.74164        -0.28244
C           3.30510         1.19381         0.13089
O           2.80595         2.19567        -0.73481
H           0.56794        -1.03403        -0.00565
H           0.60372         0.55024        -0.78117
H           0.62645         0.42547         0.99330
H           2.88252        -2.20687        -0.04568
H           5.38362        -2.43557         0.35095
H           4.89844         0.90269        -1.34903
H           5.49318         1.21635         0.30264
H           3.30273         1.57955         1.15688
H           2.78387         1.83320        -1.63555

