%chk=CC1dNN2CdCNdC1C2.chk
%NProcShared=20
# opt freq b3lyp/6-31g(2df,p)

Title Card Required 

0  1
C           1.17737        -0.19362        -0.00518
C           2.60935        -0.65742         0.22762
N           3.24832        -1.13289         1.28127
N           4.68840        -1.61950         0.78633
C           5.73485        -0.67836         0.61446
C           5.50239         0.44772        -0.14552
N           4.28911         0.53051        -0.83196
C           3.64719        -0.63940        -0.82657
C           4.34128        -2.04793        -0.57818
H           0.49985        -1.05499        -0.06600
H           1.00863         0.38213        -0.93158
H           0.82543         0.43476         0.81892
H           6.72786        -1.11665         0.48215
H           6.29259         1.16679        -0.32049
H           5.13849        -2.30527        -1.28800
H           3.85013        -2.98798        -0.30352

