%chk=CC1dCCpNpN2CC12N.chk
%NProcShared=20
# opt freq b3lyp/6-31g(2df,p)

Title Card Required 

0  1
C           0.99044         0.16120         0.09208
C           2.47431         0.24000         0.17457
C           3.12131         1.42591         0.11518
C           4.57206         1.19285         0.02680
N           5.08290         1.98030        -1.07917
N           4.71166        -0.17061        -0.48464
C           4.75669        -1.37468         0.13216
C           3.33344        -0.94316         0.18020
N           2.65715        -2.22677        -0.04430
H           0.52807         1.15123         0.07429
H           0.61144        -0.38001         0.96297
H           0.66658        -0.36125        -0.81880
H           2.64997         2.38674         0.04888
H           5.05574         1.51516         0.96467
H           4.80248         1.42083        -1.88925
H           6.09409         1.87382        -1.07367
H           5.22256        -1.76914         1.02186
H           4.98077        -2.09697        -0.67466
H           1.65306        -2.11285        -0.14159
H           2.72588        -2.76825         0.82630

