%chk=CC1dCdCCNCC1C.chk
%NProcShared=20
# opt freq b3lyp/6-31g(2df,p)

Title Card Required 

0  1
C           1.09414         0.03700         0.20331
C           2.53776        -0.18445         0.71447
C           2.65612        -1.19913         1.46891
C           3.27484        -1.50094         2.62010
C           4.16744        -0.38645         2.72347
N           5.27481         0.26375         3.21915
C           5.20772         1.25717         1.83978
C           3.89834         0.87834         0.43909
C           3.41932         1.06004        -1.15065
H           0.41445        -0.25807         1.01288
H           0.88880        -0.65907        -0.62370
H           0.76380         1.03684        -0.09390
H           3.58725        -2.45639         2.93000
H           3.48440         0.48439         2.75126
H           4.73609        -0.69477         1.79994
H           6.00900        -0.45442         3.23448
H           6.27376         1.12796         1.57405
H           5.03167         2.18846         2.40202
H           4.75036         0.32383         0.00924
H           2.33578         1.24608        -1.24633
H           3.45009         0.04984        -1.64734
H           3.79170         1.79651        -1.86222

