%chk=CC1dNONpOpCdN1.chk
%NProcShared=20
# opt freq b3lyp/6-31g(2df,p)

Title Card Required 

0  1
C           1.10588        -0.09472        -0.05970
C           2.61113        -0.04267        -0.05993
N           3.18593         1.12025        -0.05880
O           4.58799         1.15448        -0.05174
N           5.25488        -0.04331        -0.07747
O           6.63017        -0.10407        -0.04763
C           4.52522        -1.18042        -0.06345
N           3.23789        -1.25959        -0.05862
H           0.69357         0.91886        -0.06071
H           0.75152        -0.61832         0.83259
H           0.75092        -0.62085        -0.95009
H           6.86552         0.84158        -0.05010
H           5.13632        -2.09834        -0.06378

