%chk=CC1dNCCC2pCpNdC12.chk
%NProcShared=20
# opt freq b3lyp/6-31g(2df,p)

Title Card Required 

0  1
C           1.26769         0.16713        -0.15032
C           2.80051         0.04716        -0.31024
N           3.18120        -1.16609        -0.46855
C           4.53240        -1.64784        -0.42982
C           5.59751        -0.65073        -0.03914
C           5.27385         0.70501        -0.59713
C           6.40631         1.31658        -1.47524
N           4.81931         1.71954         0.19899
C           3.65997         1.28012        -0.08689
H           0.79064        -0.75913        -0.51512
H           0.83154         0.99270        -0.71207
H           0.96534         0.23464         0.90444
H           4.75991        -2.07446        -1.41074
H           4.54052        -2.46406         0.29780
H           6.54600        -1.03805        -0.43548
H           5.73311        -0.61051         1.04747
H           7.35216         0.75995        -1.34529
H           6.68999         2.35247        -1.22283
H           6.18971         1.28317        -2.54731

