%chk=CC1dCc2nnnnc21.chk
%NProcShared=20
# opt freq b3lyp/6-31g(2df,p)

Title Card Required 

0  1
C           1.56923         0.18468        -0.31454
C           2.97848         0.44431         0.22597
C           3.09772         0.81460         1.54253
C           4.51146         0.71395         1.44993
N           5.53826         0.77600         2.26513
N           6.64598         0.60099         1.64698
N           6.72185         0.46457         0.34389
N           5.61952         0.38573        -0.45491
C           4.45619         0.49945         0.14151
H           1.26252        -0.85463        -0.09343
H           1.30307         0.38891        -1.35029
H           0.88245         0.72928         0.35591
H           2.36887         1.00423         2.29975

