%chk=CC1dCpCpCpdOpNdN1.chk
%NProcShared=20
# opt freq b3lyp/6-31g(2df,p)

Title Card Required 

0  1
C           1.10088         0.06501        -0.09021
C           2.58758        -0.02658        -0.08980
C           3.29658        -1.15092        -0.08875
C           2.92499        -2.57119        -0.08704
C           4.65579        -0.61839        -0.09006
O           5.65853        -1.32062        -0.09202
N           4.58065         0.76077        -0.08944
N           3.36482         1.09779        -0.08995
H           0.63775        -0.92672        -0.08911
H           0.73976         0.58300        -0.98301
H           0.73945         0.58526         0.80111
H           1.83940        -2.70273        -0.08655
H           3.31627        -3.06583         0.80540
H           3.31595        -3.06825        -0.97825

