%chk=CC1dNCdCpOpCdCO1.chk
%NProcShared=20
# opt freq b3lyp/6-31g(2df,p)

Title Card Required 

0  1
C           1.01837        -0.05920         0.05303
C           2.52493         0.01338         0.05198
N           3.09304         1.17373         0.05051
C           4.43322         1.41070         0.05002
C           5.49374         0.59263         0.05263
O           6.78930         1.07764         0.05383
C           5.46631        -0.83565         0.05372
C           4.38764        -1.61830         0.05299
O           3.04222        -1.24869         0.05242
H           0.59297         0.94946         0.05433
H           0.66638        -0.58284         0.94636
H           0.66538        -0.58110        -0.84090
H           4.63744         2.47978         0.04712
H           6.76595         2.04893         0.05642
H           6.44185        -1.31866         0.05416
H           4.46051        -2.69924         0.05275

