%chk=CC1dCCpNpNCN1.chk
%NProcShared=20
# opt freq b3lyp/6-31g(2df,p)

Title Card Required 

0  1
C           0.99023        -0.12105        -0.05703
C           2.48669        -0.09044        -0.04351
C           3.15946         1.06698        -0.06558
C           4.64173         1.13717        -0.06270
N           5.06668         1.85295        -1.24165
N           5.42160        -0.07537        -0.09527
C           4.62626        -1.29853        -0.10640
N           3.19235        -1.26153         0.00250
H           0.56988         0.89126        -0.05989
H           0.61046        -0.63459         0.83110
H           0.62265        -0.63383        -0.95127
H           2.62843         2.01258        -0.07946
H           4.93463         1.71567         0.82151
H           4.76990         1.28117        -2.03097
H           6.08031         1.80024        -1.26127
H           5.96425        -0.09324         0.76411
H           4.98714        -1.93162         0.71432
H           4.89002        -1.84578        -1.01948
H           2.68487        -2.13477        -0.09389

