%chk=CC1dNNdC2ONdCC12.chk
%NProcShared=20
# opt freq b3lyp/6-31g(2df,p)

Title Card Required 

0  1
C           1.15200         0.03266        -0.09975
C           2.63878         0.07813        -0.01665
N           3.31272         1.17258         0.20082
N           4.70003         0.81500         0.38033
C           4.73357        -0.47297         0.28023
O           5.76352        -1.28578        -0.03523
N           5.22950        -2.11367        -1.09997
C           3.94783        -1.90844        -1.12494
C           3.46187        -1.14616         0.03485
H           0.73991         1.04495        -0.11174
H           0.77360        -0.48477         0.78845
H           0.83062        -0.51009        -0.99041
H           3.27548        -2.31873        -1.88786
H           3.16316        -1.80607         0.85217

