%chk=Cc1nccpONpcn1.chk
%NProcShared=20
# opt freq b3lyp/6-31g(2df,p)

Title Card Required 

0  1
C          -2.38359        -0.02298         0.00755
C          -0.88719        -0.01042        -0.01520
N          -0.24312        -1.19250        -0.00107
C           1.10908        -1.13425         0.01318
C           1.83252         0.03710         0.01804
O           3.19257        -0.04615         0.11828
N           3.83169         1.26012         0.03426
C           1.07119         1.18270        -0.02535
N          -0.28301         1.19084        -0.03292
H          -2.76828        -1.04681         0.00635
H          -2.77277         0.49771        -0.87204
H          -2.74503         0.48296         0.90800
H           1.60508        -2.10057         0.03121
H           4.81521         0.98182         0.02200
H           3.68522         1.62502         0.97715
H           1.51951         2.17023        -0.04226

