%chk=CC1NdNCdNNdN1.chk
%NProcShared=20
# opt freq b3lyp/6-31g(2df,p)

Title Card Required 

0  1
C           0.97119        -0.01415         0.07398
C           2.50151         0.00036        -0.00757
N           2.85990         1.28045        -0.58254
N           3.57613         1.51318        -1.55264
C           4.14950         0.58705        -2.35355
N           4.17488        -0.69765        -2.38169
N           3.57112        -1.54980        -1.52626
N           2.88400        -1.28028        -0.55010
H           0.57885         0.92475         0.47986
H           0.61684        -0.83527         0.70670
H           0.53687        -0.15340        -0.92306
H           2.87963         0.01930         1.02184
H           4.72330         1.05941        -3.16956

