%chk=Cc1n[nH]ncpNpc1dO.chk
%NProcShared=20
# opt freq b3lyp/6-31g(2df,p)

Title Card Required 

0  1
C           0.93968         0.11674         0.00009
C           2.43306         0.14580        -0.00034
N           3.10939         1.24923         0.00142
N           4.44942         1.18825        -0.00308
N           5.20628         0.07913         0.00605
C           4.64419        -1.08944         0.00493
N           5.35604        -2.25682         0.01095
C           3.14579        -1.15674        -0.00250
O           2.55901        -2.22707        -0.00796
H           0.53686         1.13242         0.00137
H           0.58667        -0.41011         0.89098
H           0.58636        -0.40773        -0.89213
H           4.94866         2.08230         0.00078
H           6.36542        -2.23455         0.01320
H           4.86712        -3.14531         0.00726

