%chk=CCC1CCpNpCpCpN1.chk
%NProcShared=20
# opt freq b3lyp/6-31g(2df,p)

Title Card Required 

0  1
C           1.01310        -0.13952        -0.11489
C           2.52795        -0.06777         0.04051
C           3.02295         0.96150         1.06648
C           2.96290         2.39894         0.56066
C           2.93653         3.23179         1.83592
N           4.30470         3.49898         2.29637
C           2.10740         2.33927         2.78510
C           2.45019         2.44844         4.26454
N           2.30160         0.94255         2.35045
H           0.74618        -0.80505        -0.94032
H           0.58134         0.84507        -0.31359
H           0.54086        -0.54784         0.78437
H           2.97117         0.16557        -0.93639
H           2.89586        -1.06280         0.31941
H           4.07098         0.72213         1.28942
H           2.05312         2.58371        -0.02147
H           3.81672         2.63730        -0.08505
H           2.43563         4.18870         1.65325
H           4.73313         2.60516         2.54591
H           4.25752         4.01747         3.17374
H           1.04714         2.59793         2.65223
H           3.47410         2.11090         4.46528
H           1.78324         1.82347         4.86761
H           2.35667         3.48176         4.61154
H           1.38733         0.51524         2.25348

