%chk=CCC1CCCCCN1.chk
%NProcShared=20
# opt freq b3lyp/6-31g(2df,p)

Title Card Required 

0  1
C           0.92702        -0.08315         0.16674
C           2.45110        -0.08902         0.08848
C           3.01014         0.00057        -1.35116
C           2.55459         1.32393        -1.99592
C           3.30396         1.74359        -3.25453
C           3.30285         0.70303        -4.36795
C           4.12023        -0.53199        -4.00453
C           3.33085        -1.58915        -3.23912
N           2.51723        -1.14886        -2.11378
H           0.60121        -0.15776         1.20748
H           0.49510        -0.92669        -0.38085
H           0.50860         0.83987        -0.24514
H           2.82972        -0.99926         0.57079
H           2.83961         0.75242         0.67671
H           4.10333        -0.02725        -1.26400
H           2.65956         2.13653        -1.26478
H           1.48522         1.27338        -2.23956
H           4.33539         2.00976        -2.99245
H           2.83891         2.66192        -3.63505
H           3.75039         1.16456        -5.25571
H           2.27573         0.42941        -4.63735
H           5.01365        -0.24565        -3.43579
H           4.48545        -0.99562        -4.92881
H           4.03302        -2.35653        -2.89065
H           2.65560        -2.09658        -3.93956
H           2.36240        -1.94492        -1.49969

