%chk=CCC1dC2CdNCC21.chk
%NProcShared=20
# opt freq b3lyp/6-31g(2df,p)

Title Card Required 

0  1
C           0.96982        -0.00831        -0.13774
C           2.49006        -0.05218        -0.19107
C           3.09266         0.91255         0.72346
C           2.87450         2.14733         1.00670
C           3.05694         3.33929         1.82768
N           3.63239         3.21540         2.97405
C           3.98868         1.79064         3.12761
C           3.32377         0.94109         2.09366
H           0.54805        -0.73373        -0.83766
H           0.59067         0.98476        -0.40307
H           0.60119        -0.24660         0.86757
H           2.84520         0.15914        -1.20379
H           2.83443        -1.05785         0.07794
H           2.68171         4.29714         1.43406
H           3.60214         1.44028         4.08892
H           5.08109         1.69071         3.13772
H           3.88518         0.00427         2.09466

