%chk=CCCCCCpCpdNN.chk
%NProcShared=20
# opt freq b3lyp/6-31g(2df,p)

Title Card Required 

0  1
C           0.90105         0.04927        -0.07815
C           2.41584         0.03175        -0.05445
C           2.92820        -0.82472         1.10375
C           4.44652        -0.82345         1.10204
C           5.05889        -1.65108         2.22124
C           6.58855        -1.65052         2.22048
C           7.35045        -0.86884         1.16341
N           7.17495        -2.34108         3.15433
N           8.50815        -2.35709         3.17598
H           0.53995         0.66298        -0.90806
H           0.50669         0.46336         0.85486
H           0.50669        -0.96411        -0.20073
H           2.79259         1.05779         0.04050
H           2.79259        -0.35964        -1.00766
H           2.55648        -1.85079         1.00308
H           2.55648        -0.42786         2.05531
H           4.79167         0.21431         1.19021
H           4.79167        -1.21179         0.13564
H           4.72135        -2.69258         2.14551
H           4.72135        -1.27354         3.19486
H           6.71815        -0.34325         0.45266
H           7.97299        -1.55972         0.58870
H           7.97299        -0.11693         1.65561
H           8.97675        -2.89089         3.89783
H           9.08665        -1.86325         2.50816

