%chk=CCCCNCCpCpdO.chk
%NProcShared=20
# opt freq b3lyp/6-31g(2df,p)

Title Card Required 

0  1
C           1.07199         0.00770         0.03321
C           2.58856         0.00624         0.03843
C           3.12606        -0.51365         1.36614
C           4.65111        -0.50972         1.35514
N           5.12177        -1.03205         2.63081
C           6.58622        -1.03752         2.68906
C           7.10595        -1.54868         4.02796
C           6.14889        -1.96754         5.11861
O           8.32589        -1.63671         4.22123
H           0.69791         0.38172        -0.92375
H           0.68191         0.64859         0.83021
H           0.68232        -1.00409         0.18380
H           2.95681         1.02338        -0.13854
H           2.95658        -0.62128        -0.78169
H           2.75125        -1.53062         1.54282
H           2.75428         0.11192         2.18845
H           5.01572         0.51210         1.20083
H           5.01684        -1.13714         0.53409
H           4.77334        -1.98554         2.73534
H           6.97281        -0.02044         2.55656
H           6.99056        -1.68603         1.90372
H           5.09928        -1.84832         4.85041
H           6.32978        -1.35602         6.00521
H           6.31324        -3.02463         5.34261

