%chk=CCCCdCC1CdC1N.chk
%NProcShared=20
# opt freq b3lyp/6-31g(2df,p)

Title Card Required 

0  1
C           0.98106         0.06834        -0.06799
C           2.48970         0.08269        -0.04957
C           2.97208         1.04892         1.02309
C           4.44561         0.97331         1.08595
C           5.19656         1.69826         1.91995
C           6.64143         1.57473         1.96184
C           7.37372         2.70982         2.13277
C           7.43785         2.41123         0.85268
N           7.25250         1.73798        -0.29285
H           0.61909        -0.62782        -0.82674
H           0.59645         1.06808        -0.28994
H           0.59626        -0.24242         0.90829
H           2.87803         0.37723        -1.03388
H           2.86849        -0.92873         0.15096
H           2.57171         0.76091         2.00073
H           2.64917         2.07078         0.79281
H           4.93273         0.26910         0.41997
H           4.72020         2.41716         2.58638
H           7.08723         0.61391         2.17587
H           7.64011         3.36196         2.92471
H           7.43226         2.18716        -1.18191
H           6.61510         0.95207        -0.32041

