%chk=CCCCpCppCdNpCO.chk
%NProcShared=20
# opt freq b3lyp/6-31g(2df,p)

Title Card Required 

0  1
C           0.94173         0.05549        -0.02614
C           2.45156         0.03216        -0.06380
C           3.09147         1.37990         0.28327
C           4.64480         1.35967         0.29520
C           5.17284         0.35317         1.33012
C           5.19844         1.02914        -1.09088
N           5.09637        -0.12299        -1.68133
C           5.14128         2.78096         0.66166
O           6.56273         2.87054         0.66991
H           0.56703        -0.93788        -0.29494
H           0.55554         0.77402        -0.75391
H           0.57326         0.31064         0.96964
H           2.71628        -0.25553        -1.08228
H           2.80299        -0.74997         0.61535
H           2.72967         1.69874         1.27134
H           2.73597         2.13457        -0.43130
H           4.85702        -0.67117         1.11633
H           4.81614         0.61047         2.33431
H           6.26616         0.32494         1.35198
H           5.72389         1.82719        -1.63873
H           4.59678        -0.80616        -1.10852
H           4.78024         3.08482         1.65121
H           4.77939         3.52247        -0.05999
H           6.90857         2.27927         1.35976

