%chk=CCCCCCpdNpCtN.chk
%NProcShared=20
# opt freq b3lyp/6-31g(2df,p)

Title Card Required 

0  1
C           1.00199        -0.07944         0.03986
C           2.51699        -0.08486         0.05381
C           3.03124        -0.60481         1.39242
C           4.54874        -0.60797         1.40056
C           5.11409        -1.11983         2.71831
C           6.61789        -1.12094         2.72117
N           7.39618        -0.74701         1.75850
C           7.32914        -1.57647         3.89393
N           7.87814        -1.94826         4.85109
H           0.63134         0.29287        -0.91864
H           0.61294         0.56338         0.83572
H           0.61294        -1.09093         0.19314
H           2.89059         0.93090        -0.12404
H           2.89059        -0.71424        -0.76305
H           2.65825        -1.62100         1.56603
H           2.65825         0.02774         2.20645
H           4.91122         0.41147         1.21622
H           4.91122        -1.23569         0.57641
H           4.76234        -2.14131         2.90887
H           4.76234        -0.49480         3.54842
H           6.86748        -0.42957         0.94125

