%chk=CCCCtCC1CC1dO.chk
%NProcShared=20
# opt freq b3lyp/6-31g(2df,p)

Title Card Required 

0  1
C           1.06645        -0.00208        -0.07625
C           2.58281        -0.00185        -0.06449
C           3.10062         0.02492         1.36554
C           4.62062         0.02492         1.36554
C           5.92448         0.02492         1.36554
C           7.35987        -0.00034         1.40897
C           8.13792         0.51882         0.08167
C           8.17012         1.15634         1.33563
O           8.42423         2.20938         1.86554
H           0.69354        -0.02134        -1.10370
H           0.67686         0.89453         0.41638
H           0.67687        -0.87962         0.44962
H           2.95598         0.86919        -0.61718
H           2.95595        -0.89297        -0.58418
H           2.74664        -0.85110         1.92065
H           2.74667         0.92113         1.88744
H           7.78878        -0.82627         1.95937
H           7.55142         0.95846        -0.71290
H           9.03367         0.00650        -0.23601

