%chk=CCCCCNCN.chk
%NProcShared=20
# opt freq b3lyp/6-31g(2df,p)

Title Card Required 

0  1
C           1.05913         0.00761         0.06620
C           2.57921        -0.00166         0.06752
C           3.12083        -1.41793         0.24358
C           4.65166        -1.43824         0.24483
C           5.16266        -2.86852         0.41902
N           6.62438        -2.91330         0.39486
C           7.07710        -4.26369         0.60298
N           8.50861        -4.15487         0.63235
H           0.68549         1.02812        -0.06065
H           0.66477        -0.38532         1.00887
H           0.66492        -0.60402        -0.75178
H           2.94428         0.64036         0.87736
H           2.94424         0.42252        -0.87492
H           2.74557        -2.05689        -0.56561
H           2.74657        -1.83976         1.18473
H           5.02667        -0.80282         1.05665
H           5.02474        -1.01839        -0.69751
H           4.76581        -3.49000        -0.39238
H           4.78602        -3.27098         1.36746
H           7.00578        -2.34704         1.15012
H           6.76174        -4.91772        -0.21585
H           6.71776        -4.67529         1.55092
H           8.79665        -3.77112        -0.26468
H           8.90514        -5.09202         0.68008

