%chk=CCCdNCCpdOpO.chk
%NProcShared=20
# opt freq b3lyp/6-31g(2df,p)

Title Card Required 

0  1
C           0.96996         0.07179         0.06791
C           2.48546         0.06966         0.09665
C           3.02265        -0.03490         1.50670
N           4.29139        -0.04871         1.69302
C           4.78424        -0.15122         3.07540
C           6.32099        -0.14899         3.04535
O           7.01392        -0.07421         2.03680
O           6.90105        -0.23973         4.26903
H           0.60395         0.14811        -0.96132
H           0.56922         0.91693         0.63670
H           0.56922        -0.84800         0.50583
H           2.86944         0.99050        -0.35671
H           2.86945        -0.77423        -0.48757
H           2.29399        -0.09620         2.33338
H           4.44560        -1.08707         3.53410
H           4.44560         0.70673         3.66712
H           6.29617        -0.29611         5.02928

