%chk=CCCpCppCCOpNC.chk
%NProcShared=20
# opt freq b3lyp/6-31g(2df,p)

Title Card Required 

0  1
C           1.07308        -0.00290        -0.32885
C           2.56579         0.09652        -0.01146
C           2.99664         1.03408         1.16949
C           2.52212         2.47270         0.88476
C           2.48829         0.50768         2.54145
C           0.98457         0.51448         2.78147
O           0.71670         0.12485         4.12604
N           4.49294         1.01220         1.17499
C           5.13767         1.85517         2.18347
H           0.91613        -0.46378        -1.30809
H           0.57860         0.97108        -0.33976
H           0.55237        -0.66008         0.36577
H           3.05471         0.43962        -0.93412
H           2.94070        -0.92058         0.16783
H           1.43521         2.54559         0.81234
H           2.93742         2.84242        -0.06102
H           2.81756         3.16791         1.67634
H           2.91036         1.10940         3.35457
H           2.87422        -0.50742         2.71217
H           0.45379        -0.20587         2.17082
H           0.55316         1.50295         2.61681
H           0.87944        -0.82866         4.17099
H           4.83831         1.29882         0.25762
H           4.90253         1.54078         3.20332
H           4.88642         2.91316         2.06785
H           6.22537         1.77957         2.08770

