%chk=CCCpCCpCpCpN.chk
%NProcShared=20
# opt freq b3lyp/6-31g(2df,p)

Title Card Required 

0  1
C           0.96539         0.39824        -0.01056
C           2.46414         0.14449        -0.00076
C           2.96923        -1.04508         0.85883
C           2.48486        -2.42829         0.34025
C           0.98686        -2.68400         0.40162
C           4.53888        -1.02795         0.91704
C           5.11809         0.27611         1.47719
N           5.05404        -2.13087         1.73912
H           0.75968         1.39695        -0.40878
H           0.54361         0.33842         0.99692
H           0.43681        -0.28524        -0.67232
H           2.89662         1.07292         0.38280
H           2.82359         0.03420        -1.03072
H           2.59320        -0.91210         1.88329
H           2.94400        -3.21978         0.94450
H           2.83661        -2.58088        -0.68706
H           0.56366        -2.36287         1.35794
H           0.78025        -3.75110         0.27483
H           0.45731        -2.19486        -0.41417
H           4.92678        -1.16775        -0.10049
H           4.74317         0.47529         2.48726
H           4.87675         1.13566         0.84662
H           6.21234         0.23550         1.52174
H           4.73574        -2.01919         2.70359
H           6.07013        -2.09946         1.76900

