%chk=CCCpCppCNpC1CO1.chk
%NProcShared=20
# opt freq b3lyp/6-31g(2df,p)

Title Card Required 

0  1
C           1.01365        -0.17119        -0.00341
C           2.52459         0.01286         0.03060
C           3.06350         1.47932         0.00944
C           2.59941         2.22037        -1.26545
C           2.58828         2.27065         1.27547
N           1.14167         2.42813         1.39621
C           4.59875         1.38573         0.05558
C           5.36840         0.69462        -1.05272
O           5.33432         2.12205        -0.93195
H           0.76620        -1.23160        -0.10125
H           0.56121         0.35593        -0.84699
H           0.54063         0.16282         0.92165
H           2.93141        -0.53217        -0.83032
H           2.91926        -0.50081         0.91786
H           1.51149         2.29083        -1.34016
H           2.95050         1.71740        -2.17281
H           2.99016         3.24501        -1.28538
H           3.04859         3.26616         1.28445
H           2.94558         1.75632         2.17589
H           0.75842         2.91601         0.59340
H           0.89594         2.96156         2.22942
H           5.01332         1.34158         1.05503
H           4.83087         0.25163        -1.88206
H           6.28412         0.17800        -0.79447

