%chk=CCCpdOpCCpNpCC.chk
%NProcShared=20
# opt freq b3lyp/6-31g(2df,p)

Title Card Required 

0  1
C           1.00904        -0.04221        -0.06939
C           2.52934        -0.08521        -0.03712
C           2.98802        -1.33751         0.67327
O           2.16920        -2.14218         1.13076
C           4.48427        -1.58049         0.77175
C           4.76892        -2.91491         1.47871
N           4.18792        -4.04181         0.73486
C           6.27205        -3.15825         1.64525
C           6.54572        -4.46088         2.38970
H           0.64887         0.85749        -0.57191
H           0.60113        -0.05911         0.94808
H           0.60910        -0.91713        -0.59588
H           2.92112         0.78656         0.49528
H           2.92400        -0.09245        -1.05828
H           4.92936        -0.75198         1.33553
H           4.91232        -1.58014        -0.23767
H           4.30879        -2.88969         2.47583
H           4.53551        -4.05818        -0.22055
H           3.17390        -3.88497         0.67570
H           6.72263        -2.32843         2.20319
H           6.76289        -3.18851         0.66465
H           6.09331        -4.43679         3.38658
H           7.62079        -4.62173         2.49868
H           6.13470        -5.32265         1.85327

