%chk=CCNdCdCC1CC1O.chk
%NProcShared=20
# opt freq b3lyp/6-31g(2df,p)

Title Card Required 

0  1
C           1.01183         0.04766         0.03173
C           2.54102         0.04591         0.03429
N           3.05104         0.25852        -1.33152
C           4.22054         0.23825        -1.48925
C           5.49200         0.26417        -1.78126
C           6.47394        -0.56777        -1.07360
C           6.86363        -1.91067        -1.64447
C           7.84507        -0.77621        -1.69958
O           8.98049        -0.83815        -0.81809
H           0.62732        -0.11126         1.04671
H           0.60801        -0.74866        -0.60274
H           0.60847         1.00034        -0.32843
H           2.88398        -0.91715         0.43020
H           2.88470         0.84250         0.70509
H           5.85423         1.00188        -2.49255
H           6.42383        -0.47550         0.00592
H           6.39367        -2.23377        -2.56859
H           7.05638        -2.74078        -0.97424
H           8.04934        -0.35863        -2.68100
H           8.80700        -1.26085         0.03882

