%chk=CCNOCCpdNpCdO.chk
%NProcShared=20
# opt freq b3lyp/6-31g(2df,p)

Title Card Required 

0  1
C           1.08795        -0.03665        -0.02561
C           2.60769        -0.05914         0.00656
N           3.03371        -1.12964         0.91619
O           4.48765        -1.15886         0.81382
C           4.99691        -2.12525         1.73472
C           6.50831        -2.07882         1.69847
N           7.18409        -1.23460         0.97976
C           7.22948        -3.09725         2.56082
O           8.44797        -3.16836         2.61212
H           0.72711         0.74951        -0.69571
H           0.67918         0.15240         0.97273
H           0.68851        -0.99292        -0.38206
H           2.98464         0.91238         0.34460
H           2.99023        -0.23990        -1.00573
H           2.75907        -2.01278         0.48022
H           4.66531        -3.12211         1.42251
H           4.64810        -1.91768         2.75270
H           6.53393        -0.62333         0.46750
H           6.57139        -3.76969         3.13061

