%chk=CCOCCpCtNpCtN.chk
%NProcShared=20
# opt freq b3lyp/6-31g(2df,p)

Title Card Required 

0  1
C           0.96032        -0.08482         0.04113
C           2.47054        -0.09772         0.03859
O           2.93002        -1.46128         0.02772
C           4.35243        -1.48382         0.07408
C           5.02586        -2.85710         0.07557
C           5.26194        -3.32664        -1.29649
N           5.50413        -3.68511        -2.36883
C           4.50002        -3.93753         0.91584
N           4.29296        -4.88151         1.55558
H           0.58128         0.94150         0.04570
H           0.57848        -0.60932         0.92209
H           0.57552        -0.60411        -0.84123
H           2.84478         0.41623         0.93315
H           2.84617         0.42686        -0.84872
H           4.67017        -0.93486         0.96835
H           4.72188        -0.91306        -0.79128
H           6.00556        -2.64102         0.51742

