%chk=CCOCC1OCdC1N.chk
%NProcShared=20
# opt freq b3lyp/6-31g(2df,p)

Title Card Required 

0  1
C           1.03868        -0.06552        -0.06570
C           2.55105        -0.07849        -0.08622
O           3.03876         0.66337         1.02910
C           4.47109         0.69040         1.01841
C           4.99546         1.44430         2.23279
O           4.78999         2.87372         2.15147
C           6.05560         3.10814         2.12901
C           6.47480         1.81450         2.17244
N           7.56806         1.10421         2.15779
H           0.64063        -0.63727        -0.90853
H           0.66071         0.96023        -0.12212
H           0.66152        -0.49742         0.86669
H           2.91414         0.37119        -1.01705
H           2.91392        -1.10998        -0.02038
H           4.81643         1.15177         0.08483
H           4.83860        -0.34203         1.05408
H           4.63859         1.03364         3.18610
H           6.62523         4.03521         2.06357
H           8.49583         1.51654         2.08939
H           7.58669         0.08779         2.19822

