%chk=CCpCdOpCCtCN.chk
%NProcShared=20
# opt freq b3lyp/6-31g(2df,p)

Title Card Required 

0  1
C           0.92760        -0.08590        -0.02426
C           2.44990        -0.08206        -0.03864
C           2.93726        -0.83039        -1.26628
O           2.65177        -2.00499        -1.49352
C           2.96988         1.35646        -0.01994
C           4.48988         1.35646        -0.01994
C           5.79373         1.35646        -0.01994
N           7.22879         1.34046        -0.03874
H           0.53701        -1.10859        -0.02877
H           0.52786         0.42411        -0.90809
H           0.54532         0.42125         0.86706
H           2.83428        -0.61926         0.83803
H           3.56829        -0.26965        -1.97654
H           2.61499         1.88508         0.87193
H           2.62361         1.90949        -0.90134
H           7.72930         0.69070         0.54705
H           7.73071         2.03289        -0.57168

