%chk=CCpCtCOpdCCdN.chk
%NProcShared=20
# opt freq b3lyp/6-31g(2df,p)

Title Card Required 

0  1
C           1.09240        -0.08215        -0.01339
C           2.59094        -0.07047        -0.00062
C           3.35094        -0.98595        -0.94651
C           4.00287        -1.77125        -1.75789
O           4.66316        -2.56405        -2.59252
C           3.28043         0.73530         0.83066
C           4.76251         0.78252         0.87911
N           5.45043         1.53971         1.66648
H           0.70177        -0.79316        -0.74797
H           0.70337         0.90961        -0.26784
H           0.70317        -0.36896         0.96946
H           4.96135        -3.36785        -2.13480
H           2.76222         1.39797         1.51450
H           5.31507         0.12108         0.19382
H           4.85034         2.11604         2.26037

