%chk=CCpCppCpC1pCpCN1.chk
%NProcShared=20
# opt freq b3lyp/6-31g(2df,p)

Title Card Required 

0  1
C           0.88537         0.02312        -0.31040
C           2.42613         0.02675        -0.18125
C           2.96713        -0.81863        -1.35412
C           2.95120         1.46631        -0.35880
C           2.82502        -0.50594         1.22223
C           2.22622         0.25338         2.39435
C           3.15742        -1.98497         1.41134
N           4.20397        -0.97401         1.46981
H           0.56474         0.29685        -1.32103
H           0.41032         0.73712         0.36979
H           0.48063        -0.97005        -0.08176
H           2.65435        -0.39641        -2.31644
H           2.58489        -1.84427        -1.32354
H           4.06051        -0.86240        -1.36191
H           2.66029         1.88001        -1.33030
H           4.04497         1.49523        -0.29221
H           2.56075         2.14321         0.40802
H           1.14240         0.35316         2.29798
H           2.65441         1.26003         2.45101
H           2.41225        -0.23791         3.35422
H           3.21570        -2.66619         0.57241
H           2.91034        -2.47189         2.34617
H           4.77128        -0.97029         0.62583

