%chk=CCpCNpCOCCdO.chk
%NProcShared=20
# opt freq b3lyp/6-31g(2df,p)

Title Card Required 

0  1
C           0.90021        -0.06450        -0.01982
C           2.43123        -0.06279         0.01663
C           2.95289         0.28152         1.42062
N           2.47356         1.59153         1.85362
C           2.94629        -1.43617        -0.42630
O           4.37557        -1.44904        -0.44540
C           4.85639        -2.73105        -0.83532
C           6.36476        -2.75045        -0.83848
O           7.01878        -3.74656        -1.14579
H           0.49051         0.91127         0.25888
H           0.49722        -0.81019         0.67463
H           0.53308        -0.30030        -1.02350
H           2.80688         0.69224        -0.68754
H           4.04829         0.28299         1.43616
H           2.61594        -0.47470         2.13896
H           2.81963         2.30593         1.21405
H           2.85682         1.81057         2.77094
H           2.57701        -1.66316        -1.43375
H           2.58662        -2.21206         0.26061
H           4.50889        -2.95960        -1.84745
H           4.50831        -3.48613        -0.12328
H           6.86584        -1.81422        -0.54357

