%chk=CCpCtCCtNpdCO.chk
%NProcShared=20
# opt freq b3lyp/6-31g(2df,p)

Title Card Required 

0  1
C           1.00157        -0.06131         0.07152
C           2.50673        -0.09557         0.06801
C           3.19611        -1.34297        -0.05980
C           3.79654        -2.38038        -0.16609
C           4.57826        -3.69775        -0.30106
N           5.17439        -4.68916        -0.40264
C           3.18006         1.06156         0.18656
O           4.53780         1.22818         0.20364
H           0.57003        -1.06198        -0.03101
H           0.62621         0.54882        -0.75827
H           0.62621         0.36787         1.00779
H           2.68896         2.02432         0.28521
H           4.96860         0.36113         0.11480

