%chk=CCpdNpNCpCppNpCtN.chk
%NProcShared=20
# opt freq b3lyp/6-31g(2df,p)

Title Card Required 

0  1
C           0.97453         0.04274        -0.03113
C           2.47128         0.07240         0.02430
N           3.12229         0.84756         0.82069
N           3.18030        -0.80342        -0.84527
C           4.65070        -0.84431        -0.90793
C           5.19775         0.52920        -1.32740
N           5.09093        -1.22171         0.42742
C           5.15736        -1.86768        -1.91113
N           5.57768        -2.71665        -2.74336
H           0.55159         0.76748         0.67204
H           0.61497        -0.95402         0.23511
H           0.63476         0.29464        -1.03874
H           2.48022         1.42663         1.37417
H           2.67634        -1.44937        -1.43933
H           4.91067         1.33697        -0.64890
H           4.82485         0.80789        -2.32003
H           6.29303         0.53141        -1.36516
H           4.78534        -0.47969         1.06500
H           6.11005        -1.19220         0.46209

