%chk=CCpdNpCpCpCpCpdO.chk
%NProcShared=20
# opt freq b3lyp/6-31g(2df,p)

Title Card Required 

0  1
C           0.84787         0.05262         0.04388
C           2.34700         0.11643        -0.06684
N           2.84928         0.93240        -0.93373
C           3.22454        -0.74430         0.83383
C           2.86694        -2.22962         0.66199
C           4.74970        -0.61083         0.74741
C           5.46835         0.29595        -0.22673
O           5.45281        -1.29125         1.50939
H           0.39861         0.74794        -0.67257
H           0.53512         0.33588         1.05031
H           0.49628        -0.95063        -0.20076
H           2.15367         1.45650        -1.46492
H           2.96653        -0.46245         1.86719
H           3.10399        -2.56813        -0.35185
H           1.80372        -2.42087         0.84077
H           3.41929        -2.86962         1.36160
H           4.87650         0.91316        -0.88191
H           6.08004        -0.31929        -0.89012
H           6.08487         0.99757         0.33973

