%chk=CCpdOpCpOpCpNpCdO.chk
%NProcShared=20
# opt freq b3lyp/6-31g(2df,p)

Title Card Required 

0  1
C           1.04848        -0.05256         0.05276
C           2.54927         0.00978         0.08520
O           3.11729         0.80626         0.83585
C           3.32252        -0.96593        -0.81781
O           2.96681        -0.73565        -2.18005
C           4.84656        -0.81539        -0.60343
N           5.25720        -1.07708         0.79015
C           5.62518        -1.75191        -1.52408
O           6.85478        -1.79618        -1.58660
H           0.65021         0.68957         0.75222
H           0.71126        -1.04316         0.36441
H           0.68704         0.18472        -0.94934
H           3.01068        -1.98649        -0.56359
H           3.23213         0.17312        -2.41723
H           5.14693         0.20161        -0.88722
H           4.97251        -2.00784         1.08696
H           4.76766        -0.40881         1.39675
H           5.02536        -2.42416        -2.15813

