%chk=CCpdCNNpCpCppCpN.chk
%NProcShared=20
# opt freq b3lyp/6-31g(2df,p)

Title Card Required 

0  1
C           0.90700         0.02577        -0.02705
C           2.41904         0.10664         0.03859
C           3.02066         1.02807         0.82527
N           2.42846         1.95131         1.64372
N           3.14815         2.89208         2.36240
C           3.17982        -0.92002        -0.82487
C           2.84219        -2.35899        -0.39286
C           2.84176        -0.74804        -2.31615
N           4.64070        -0.79440        -0.71803
H           0.39883         0.76604         0.59423
H           0.55253        -0.94864         0.31880
H           0.55191         0.19732        -1.04664
H           4.10367         1.08526         0.86670
H           1.41481         2.04948         1.59491
H           4.15638         2.75123         2.28643
H           2.93539         2.79355         3.35838
H           1.77981        -2.58624        -0.53241
H           3.08501        -2.53078         0.66262
H           3.39703        -3.09637        -0.98656
H           1.77935        -0.92586        -2.51443
H           3.39657        -1.46246        -2.93732
H           3.08455         0.26072        -2.67045
H           4.92248        -0.91529         0.25265
H           4.92245         0.14051        -1.00680

