%chk=CCpdOpNpCdOpCpCpN.chk
%NProcShared=20
# opt freq b3lyp/6-31g(2df,p)

Title Card Required 

0  1
C           1.09215        -0.06283         0.03709
C           2.60247        -0.02086         0.00389
O           3.22847        -0.44187         0.98124
N           3.23151         0.49814        -1.13678
C           2.51749         1.09454        -2.16659
O           1.29886         1.14191        -2.31726
C           4.70424         0.49561        -1.12190
C           5.29161        -0.92126        -1.06466
N           5.26381         1.15494        -2.30592
H           0.75781        -0.54900         0.95871
H           0.70802        -0.65296        -0.79939
H           0.68706         0.95227         0.03325
H           3.14228         1.53914        -2.94906
H           5.03316         1.05301        -0.23470
H           4.95111        -1.52045        -1.91568
H           5.00110        -1.45476        -0.15621
H           6.38752        -0.89845        -1.07143
H           5.05851         0.58908        -3.12977
H           6.28307         1.15007        -2.24386

