%chk=CCpdNpCpCpCCdN.chk
%NProcShared=20
# opt freq b3lyp/6-31g(2df,p)

Title Card Required 

0  1
C           1.08264        -0.06092        -0.08746
C           2.59291        -0.07474        -0.06566
N           3.24572        -1.18047        -0.23816
C           3.34736         1.23972         0.15755
C           2.94182         1.84236         1.50479
C           4.86689         1.01809         0.08991
C           5.65492         2.29031         0.24854
N           6.94806         2.31250         0.27221
H           0.68423        -1.06400        -0.26211
H           0.73337         0.60474        -0.88058
H           0.69876         0.29065         0.87318
H           2.61416        -1.97604        -0.37690
H           3.04683         1.92768        -0.64397
H           3.18194         1.15783         2.32468
H           1.86905         2.05264         1.54376
H           3.44800         2.79270         1.69642
H           5.14544         0.58013        -0.87700
H           5.18947         0.31595         0.86888
H           5.11062         3.24158         0.34475
H           7.32726         1.36532         0.16347

