%chk=CCpNpCCpCdNpCO.chk
%NProcShared=20
# opt freq b3lyp/6-31g(2df,p)

Title Card Required 

0  1
C           0.92630        -0.00995        -0.06776
C           2.44584         0.04953        -0.10986
N           2.81454         1.38820        -0.52510
C           3.07510        -0.30145         1.25287
C           4.61912        -0.31135         1.27868
C           5.30373         1.02717         1.03375
N           5.31054         1.66178        -0.09878
C           5.10399        -0.80248         2.65232
O           6.52508        -0.87026         2.70938
H           0.50796         0.27326        -1.04099
H           0.52472         0.67934         0.68354
H           0.57786        -1.01927         0.16653
H           2.81672        -0.65747        -0.86058
H           2.60810         2.07898         0.20001
H           2.36115         1.69428        -1.38147
H           2.72492        -1.30915         1.52725
H           2.69356         0.37107         2.03223
H           4.98653        -1.00238         0.50858
H           5.87161         1.48173         1.85602
H           4.61272         1.22011        -0.72772
H           4.71640        -1.79981         2.88178
H           4.77430        -0.12167         3.44566
H           6.83413        -1.44116         1.98487

