%chk=CCpOpCpCdOpON.chk
%NProcShared=20
# opt freq b3lyp/6-31g(2df,p)

Title Card Required 

0  1
C           0.97739         0.09440         0.04673
C           2.49927         0.09488        -0.05345
O           2.99872        -0.76140         0.98625
C           2.99752        -0.36437        -1.43639
C           2.46802         0.55383        -2.52415
O           1.28376         0.65033        -2.85163
O           4.43496        -0.25797        -1.48027
N           4.94635        -0.92962        -2.67748
H           0.64941         0.37045         1.05264
H           0.58105        -0.90516        -0.16337
H           0.52009         0.80383        -0.64605
H           2.88476         1.09645         0.17037
H           2.68991        -1.66842         0.81431
H           2.70405        -1.40351        -1.62866
H           3.21780         1.17647        -3.03671
H           5.95565        -0.88126        -2.50788
H           4.80006        -0.23445        -3.41214

