%chk=CCpOpCpdNpCC1CO1.chk
%NProcShared=20
# opt freq b3lyp/6-31g(2df,p)

Title Card Required 

0  1
C           0.98027        -0.11856        -0.06709
C           2.49710         0.00329        -0.09769
O           3.01166        -0.87030        -1.09503
C           2.94559         1.44307        -0.38709
N           2.10366         2.39967        -0.64974
C           4.43223         1.73778        -0.39374
C           4.80596         3.12200        -0.84631
C           4.08225         4.41721        -0.51049
O           5.22489         3.98280         0.22628
H           0.65652        -1.14461         0.11844
H           0.55484         0.17285        -1.03625
H           0.55570         0.53338         0.70435
H           2.91658        -0.30995         0.86490
H           2.63521        -0.60232        -1.95199
H           1.12613         2.12639        -0.59598
H           4.89399         1.02572        -1.09110
H           4.85226         1.50504         0.59335
H           5.37733         3.11367        -1.76456
H           3.11711         4.41253        -0.02049
H           4.20109         5.24765        -1.19740

