%chk=CCpOpCpOpCpOpCdN.chk
%NProcShared=20
# opt freq b3lyp/6-31g(2df,p)

Title Card Required 

0  1
C           0.92970         0.07012         0.07821
C           2.45336         0.04843         0.09319
O           2.86715        -0.36798         1.38991
C           3.02104        -0.85386        -1.02677
O           2.53155        -0.41215        -2.30035
C           4.55996        -0.88370        -1.04268
O           5.13833        -1.36404         0.16548
C           5.07117        -1.78223        -2.15435
N           6.33652        -1.97672        -2.36301
H           0.55267         0.71092         0.88213
H           0.52991        -0.93361         0.25978
H           0.53703         0.43846        -0.87349
H           2.81264         1.07379        -0.05491
H           2.59042        -1.28911         1.52613
H           2.65110        -1.87547        -0.87216
H           2.81367         0.51119        -2.43747
H           4.95205         0.12232        -1.22923
H           4.73750        -2.22462         0.37617
H           4.33534        -2.28755        -2.79940
H           6.87744        -1.44980        -1.66239

