%chk=CCtCCpCtNpNOC.chk
%NProcShared=20
# opt freq b3lyp/6-31g(2df,p)

Title Card Required 

0  1
C           1.03225        -0.05865        -0.07429
C           2.55225        -0.05865        -0.07429
C           3.85611        -0.05865        -0.07429
C           5.37611        -0.05865        -0.07429
C           5.88278        -0.38540         1.32103
N           6.30310        -0.65647         2.47856
N           5.80038        -1.06422        -1.07198
O           7.25061        -0.95142        -1.18003
C           7.73023        -2.04678        -1.96089
H           0.65917        -1.06693        -0.27435
H           0.65912         0.61872        -0.84745
H           0.65914         0.27220         0.89893
H           5.73256         0.93559        -0.36895
H           5.49049        -0.72050        -1.98457
H           8.82202        -2.04772        -1.92427
H           7.41563        -1.90806        -3.00026
H           7.36167        -3.00603        -1.58078

