%chk=CCtCCpdNpCOC.chk
%NProcShared=20
# opt freq b3lyp/6-31g(2df,p)

Title Card Required 

0  1
C           0.94263         0.06513         0.04967
C           2.46263         0.06513         0.04967
C           3.76649         0.06513         0.04967
C           5.22186         0.06829         0.04701
N           5.77030        -0.82894         0.80225
C           5.99846         1.06699        -0.79364
O           7.40740         0.90738        -0.65929
C           8.14060         1.83551        -1.44053
H           0.56961        -0.32973        -0.89942
H           0.56961         1.08450         0.18224
H           0.56961        -0.55937         0.86618
H           5.08953        -1.40902         1.29053
H           5.71460         2.07678        -0.47632
H           5.71460         0.92659        -1.84276
H           9.20837         1.65229        -1.28632
H           7.91559         2.85948        -1.12891
H           7.91559         1.70313        -2.50266

