%chk=CCtCCCpNpCdO.chk
%NProcShared=20
# opt freq b3lyp/6-31g(2df,p)

Title Card Required 

0  1
C           1.05030        -0.06824         0.05304
C           2.57030        -0.06824         0.05304
C           3.87416        -0.06824         0.05304
C           5.39416        -0.06824         0.05304
C           5.90746        -0.47894         1.44512
N           5.43501        -1.82448         1.83306
C           7.43135        -0.44992         1.48138
O           8.11090        -0.70880         2.47363
H           0.67745        -1.00800         0.46977
H           0.67727         0.04074        -0.96911
H           0.67734         0.76244         0.65858
H           5.75749         0.93049        -0.21496
H           5.75332        -0.76444        -0.71468
H           5.55602         0.24783         2.18844
H           5.72439        -2.50877         1.13622
H           4.41375        -1.83082         1.81888
H           7.93122        -0.18243         0.53607

