%chk=CCtCC1pCpCCC1N.chk
%NProcShared=20
# opt freq b3lyp/6-31g(2df,p)

Title Card Required 

0  1
C           1.04727         0.04863         0.07349
C           2.56727         0.04863         0.07349
C           3.87112         0.04863         0.07349
C           5.31922         0.02492         0.01833
C           5.71948         0.07732        -1.45703
C           5.99966         1.08999         0.94763
C           7.04111         0.01445         1.33289
C           5.97098        -1.03974         0.98148
N           6.58697        -2.14702         0.25536
H           0.67422        -0.90713         0.45190
H           0.67423         0.19878        -0.94342
H           0.67420         0.85421         0.71199
H           5.24919         0.93244        -1.95883
H           5.37880        -0.82707        -1.97818
H           6.79951         0.16431        -1.59773
H           5.38996         1.40740         1.80551
H           6.40241         1.98456         0.46565
H           7.35699         0.03008         2.38085
H           7.93708         0.03401         0.70082
H           5.36109        -1.34704         1.84048
H           7.18381        -1.87794        -0.52842
H           5.90240        -2.79636        -0.12817

