%chk=CCtCCNC1CON1.chk
%NProcShared=20
# opt freq b3lyp/6-31g(2df,p)

Title Card Required 

0  1
C           1.02269        -0.02594        -0.09387
C           2.54269        -0.02594        -0.09387
C           3.84655        -0.02594        -0.09387
C           5.36655        -0.02594        -0.09387
N           5.87441         0.72237         1.05922
C           7.33065         0.71553         0.98952
C           7.89500         2.09633         1.39282
O           8.80905         1.40977         2.30233
N           7.95809         0.21106         2.20823
H           0.64958         1.00197        -0.08817
H           0.64958        -0.54480         0.79349
H           0.64953        -0.53497        -0.98689
H           5.70502         0.42628        -1.03372
H           5.71199        -1.06631        -0.06221
H           5.51003         0.27323         1.89348
H           7.78308         0.31486         0.07665
H           7.24581         2.76734         1.96564
H           8.41414         2.64931         0.60605
H           7.41760         0.32826         3.06408

