%chk=CdC1COCpCpCpCpO1.chk
%NProcShared=20
# opt freq b3lyp/6-31g(2df,p)

Title Card Required 

0  1
C           1.22692        -0.08451         0.05958
C           2.56144        -0.06649         0.04833
C           3.43526         1.12749         0.09388
O           4.50986         0.73566        -0.75667
C           4.58838        -0.68925        -0.58616
C           5.02197        -1.38550        -1.89134
C           6.31641        -0.80951        -2.46711
C           5.19494        -2.89302        -1.67567
O           3.30648        -1.20766        -0.17266
H           0.65010         0.83114         0.14424
H           0.67793        -1.01524        -0.04476
H           3.81866         1.29271         1.10696
H           2.96723         2.04204        -0.27876
H           5.31817        -0.88792         0.20959
H           4.22925        -1.24189        -2.63772
H           7.15567        -0.95960        -1.77972
H           6.22600         0.26105        -2.67224
H           6.56803        -1.30535        -3.41215
H           6.00631        -3.09597        -0.96743
H           5.44272        -3.39358        -2.61814
H           4.28183        -3.35297        -1.28614

