%chk=CdCCpNCpOCC.chk
%NProcShared=20
# opt freq b3lyp/6-31g(2df,p)

Title Card Required 

0  1
C           0.97490        -0.17462         0.23529
C           2.29580         0.02683         0.05044
C           2.98999         0.08683        -1.29196
N           2.62768         1.28865        -2.04217
C           1.23140         1.35646        -2.43219
O           4.40742         0.08142        -1.03879
C           5.19372         0.00123        -2.22963
C           6.67414        -0.00107        -1.90739
H           0.52089        -0.11630         1.21676
H           0.30277        -0.33208        -0.60115
H           2.91718         0.17827         0.92821
H           2.75730        -0.82922        -1.85117
H           3.16627         1.28583        -2.89953
H           0.58758         1.59575        -1.58371
H           0.90145         0.43088        -2.91492
H           1.09356         2.17630        -3.14158
H           5.02144         0.87927        -2.85781
H           4.92632        -0.89910        -2.79202
H           6.94661         0.89265        -1.33667
H           7.25614        -0.00773        -2.83563
H           6.94945        -0.87385        -1.31056

