%chk=CdCCpCpCtCCCC.chk
%NProcShared=20
# opt freq b3lyp/6-31g(2df,p)

Title Card Required 

0  1
C           0.97688        -0.01740        -0.05327
C           2.31781        -0.06736        -0.06002
C           3.06848        -1.37452        -0.08195
C           2.69892        -2.18417        -1.32384
C           4.52330        -1.15697        -0.07144
C           5.71786        -1.06128        -0.08027
C           7.17971        -0.96657        -0.07526
C           7.63846        -0.00600         1.01478
C           9.15084         0.10168         1.02926
H           0.44067         0.92381        -0.06539
H           0.38556        -0.92959        -0.05040
H           2.88315         0.86278        -0.06676
H           2.80615        -1.93927         0.82189
H           2.96981        -1.64280        -2.23898
H           1.62503        -2.39102        -1.36309
H           3.22175        -3.14569        -1.33576
H           7.53237        -0.62133        -1.05395
H           7.61565        -1.95866         0.09338
H           7.28543        -0.35073         1.99498
H           7.20064         0.98655         0.85043
H           9.60559        -0.87529         1.22133
H           9.47493         0.79316         1.81168
H           9.52041         0.47033         0.06720

