%chk=CdCpCpCpCpCpCpC.chk
%NProcShared=20
# opt freq b3lyp/6-31g(2df,p)

Title Card Required 

0  1
C           1.03466         0.07225        -0.02129
C           2.38222         0.03986        -0.08415
C           3.03280         0.41549        -1.39024
C           3.21386        -0.41382         1.13110
C           2.81490        -1.86295         1.49914
C           4.76576        -0.28266         0.98879
C           5.24149         1.16500         0.79762
C           5.52313        -0.80344         2.22111
H           0.43926         0.36816        -0.87859
H           0.49390        -0.21092         0.87408
H           2.30527         0.50406        -2.20318
H           3.77207        -0.32976        -1.69531
H           3.49746         1.40038        -1.34160
H           2.91884         0.22190         1.97995
H           3.08522        -2.55927         0.69805
H           1.73923        -1.96092         1.68213
H           3.29076        -2.20320         2.42325
H           5.08625        -0.88496         0.12891
H           4.97023         1.78266         1.65895
H           4.84321         1.66025        -0.07947
H           6.32902         1.19265         0.67334
H           5.25809        -0.22208         3.11133
H           6.60398        -0.71029         2.06713
H           5.33137        -1.85854         2.42485

