%chk=CdCpCdOpCONCC.chk
%NProcShared=20
# opt freq b3lyp/6-31g(2df,p)

Title Card Required 

0  1
C           0.90707        -0.00103         0.02589
C           2.25090         0.00610         0.01716
C           2.96426        -1.20205         0.51173
O           2.38529        -2.20101         0.93064
C           3.02408         1.19329        -0.46696
O           4.43319         1.01498        -0.30187
N           5.11568         2.16350        -0.88184
C           6.54024         1.85810        -0.75030
C           7.32507         3.06383        -1.23499
H           0.34234        -0.86004         0.37842
H           0.33843         0.85479        -0.32449
H           4.06418        -1.16109         0.49099
H           2.73069         2.07346         0.11970
H           2.79544         1.37951        -1.52398
H           4.90090         2.90949        -0.21635
H           6.80279         0.97792        -1.34712
H           6.79291         1.65048         0.29656
H           7.09172         3.28575        -2.28193
H           8.39992         2.87898        -1.15545
H           7.08785         3.95156        -0.63768

