%chk=CdCpCpOCC1NC1dO.chk
%NProcShared=20
# opt freq b3lyp/6-31g(2df,p)

Title Card Required 

0  1
C           0.97165        -0.02996         0.07561
C           2.31143        -0.02728         0.05332
C           3.05883        -0.27197        -1.22191
O           2.99035         0.21425         1.23365
C           4.42742         0.22396         1.22595
C           4.87743         0.48613         2.62367
N           6.23228         0.39489         3.05434
C           5.71756         1.59016         3.00260
O           5.74392         2.78195         3.01856
H           0.38917        -0.20409        -0.82392
H           0.42010         0.14718         0.99316
H           2.37447        -0.43235        -2.06307
H           3.68346        -1.16581        -1.13875
H           3.68378         0.58888        -1.47441
H           4.79229         0.99657         0.53945
H           4.79200        -0.75933         0.90711
H           4.19347         0.08911         3.35869
H           7.11648        -0.07822         2.99091

