%chk=COCCCCCpCpdN.chk
%NProcShared=20
# opt freq b3lyp/6-31g(2df,p)

Title Card Required 

0  1
C           0.87578         0.01840         0.00720
O           2.29721         0.01154         0.00141
C           2.78693        -1.00822        -0.85893
C           4.30904        -0.98527        -0.83956
C           4.82919        -2.07455        -1.75854
C           6.34490        -2.14567        -1.81854
C           6.85481        -3.23961        -2.74146
C           5.91521        -4.14264        -3.50330
N           8.12935        -3.42407        -2.89708
H           0.53659         0.81165         0.67643
H           0.49373        -0.94049         0.37132
H           0.49373         0.21586        -0.99931
H           2.42147        -0.83546        -1.87886
H           2.42147        -1.98451        -0.51688
H           4.67302        -1.13600         0.18329
H           4.67302        -0.00241        -1.16037
H           4.43475        -1.89665        -2.76720
H           4.43475        -3.03885        -1.41334
H           6.75276        -2.32848        -0.81693
H           6.75276        -1.18914        -2.16740
H           4.86121        -3.93349        -3.32686
H           6.09898        -5.17861        -3.20830
H           6.09898        -4.02629        -4.57416
H           8.67221        -2.75983        -2.33668

