%chk=CtCCCpCOpNN.chk
%NProcShared=20
# opt freq b3lyp/6-31g(2df,p)

Title Card Required 

0  1
C           1.08861         0.00734         0.04577
C           2.39247         0.00734         0.04577
C           3.91247         0.00734         0.04577
C           4.41825         0.83281        -1.16992
C           3.90681         2.30504        -1.12210
O           2.49389         2.45983        -1.24241
N           5.90040         0.77823        -1.18867
N           6.45087         1.42011        -2.35685
H           0.02294         0.01865         0.05502
H           4.26952        -1.02767        -0.00421
H           4.26869         0.44618         0.98528
H           4.02680         0.35130        -2.07771
H           4.31575         2.88178        -1.95474
H           4.22139         2.78800        -0.19223
H           2.17016         1.82678        -1.90031
H           6.21318        -0.19767        -1.13123
H           6.31707         2.43572        -2.33894
H           6.05563         1.08252        -3.23729

