%chk=CtCCtCC1CC1dO.chk
%NProcShared=20
# opt freq b3lyp/6-31g(2df,p)

Title Card Required 

0  1
C           1.13231         0.05664         0.08268
C           2.33356         0.05976         0.05793
C           3.87480         0.07583         0.00569
C           5.07771         0.09366        -0.00516
C           6.51402         0.09189         0.08703
C           7.32642        -0.71972        -1.05630
C           7.37191         0.67722        -0.87485
O           7.61194         1.70258        -1.46165
H           0.06513         0.06018         0.08573
H           6.90888         0.07182         1.09413
H           6.76002        -1.13376        -1.87894
H           8.21855        -1.26956        -0.79331

