%chk=CtCCNCCpdNpCdO.chk
%NProcShared=20
# opt freq b3lyp/6-31g(2df,p)

Title Card Required 

0  1
C           0.93236        -0.02680        -0.06860
C           2.23622        -0.02680        -0.06860
C           3.75622        -0.02680        -0.06860
N           4.24099         0.82876        -1.15255
C           5.71531         0.84666        -1.19952
C           6.18077         1.73143        -2.35113
N           5.36103         2.34398        -3.15102
C           7.68253         1.87744        -2.53458
O           8.17550         2.56305        -3.41749
H          -0.13330        -0.02702        -0.07351
H           4.10512        -1.05741        -0.19675
H           4.10691         0.34410         0.90121
H           3.89525         1.77286        -0.97199
H           6.11157        -0.16247        -1.35981
H           6.12451         1.24726        -0.26531
H           4.40062         2.07430        -2.89825
H           8.29164         1.31378        -1.81310

