%chk=CtCCpCpONCpdCpC.chk
%NProcShared=20
# opt freq b3lyp/6-31g(2df,p)

Title Card Required 

0  1
C           0.97676        -0.05071        -0.08300
C           2.28061        -0.05071        -0.08300
C           3.80061        -0.05071        -0.08300
C           4.27809        -0.76997        -1.34918
O           4.26785         1.30725        -0.10210
N           5.65902         1.35372         0.10137
C           6.32954         2.55654         0.01644
C           5.70389         3.74737         0.00260
C           7.83770         2.53181        -0.01387
H          -0.08874        -0.04488        -0.08284
H           4.15853        -0.56314         0.81809
H           3.94548        -0.23529        -2.24739
H           3.90059        -1.79572        -1.39530
H           5.37046        -0.81330        -1.40503
H           6.20567         0.50854        -0.05162
H           4.62109         3.80014         0.02399
H           6.25102         4.68136        -0.00899
H           8.23388         1.51125        -0.04623
H           8.24272         3.01584         0.88166
H           8.22176         3.05922        -0.89522

