%chk=CtCCNNCpdOpCtN.chk
%NProcShared=20
# opt freq b3lyp/6-31g(2df,p)

Title Card Required 

0  1
C           0.99046        -0.01843         0.09782
C           2.29432        -0.01843         0.09782
C           3.81432        -0.01843         0.09782
N           4.34324         0.73238         1.23845
N           5.76915         0.72018         1.31024
C           6.41990         1.41213         2.33835
O           5.84389         1.98377         3.25973
C           7.87957         1.40793         2.30094
N           9.04430         1.38021         2.25997
H          -0.07532        -0.01413         0.09934
H           4.16260         0.43527        -0.83690
H           4.16519        -1.05639         0.12772
H           3.96939         0.33985         2.10900
H           6.31762         0.30489         0.55959

