%chk=CtCC1CCCpdNpC1.chk
%NProcShared=20
# opt freq b3lyp/6-31g(2df,p)

Title Card Required 

0  1
C           0.95265         0.06389         0.06063
C           2.25651         0.06389         0.06063
C           3.77651         0.06389         0.06063
C           4.34210         1.19155         0.93369
C           5.74126         0.72764         1.32510
C           5.51472        -0.74692         1.45156
N           6.26673        -1.55267         2.12437
C           4.29903        -1.22442         0.71359
H          -0.11319         0.06252         0.06089
H           4.15150         0.14941        -0.96616
H           3.73467         1.32627         1.83880
H           4.36164         2.15129         0.40762
H           6.09303         1.17645         2.25670
H           6.46519         0.90723         0.52427
H           7.04132        -1.05611         2.57675
H           3.59894        -1.65963         1.43481
H           4.57381        -1.97921        -0.02831

