%chk=CtCC12CdCN1NC2.chk
%NProcShared=20
# opt freq b3lyp/6-31g(2df,p)

Title Card Required 

0  1
C           1.61305         0.11269        -0.07880
C           2.80031         0.17133         0.06269
C           4.17513         0.13616         0.53549
C           4.51574         1.56579        -0.02921
C           5.82315         1.30613        -0.05076
N           5.64847         0.18030         0.55845
N           5.90734        -1.03609        -0.01991
C           4.50557        -1.33655        -0.01100
H           0.54292         0.04576        -0.06372
H           3.97078         2.49568        -0.15117
H           6.67569         1.97337        -0.21458
H           6.41895        -1.60830         0.65935
H           4.20017        -2.06948         0.75017
H           4.12694        -1.68205        -0.98200

