%chk=CtCCNCCpNpCdC.chk
%NProcShared=20
# opt freq b3lyp/6-31g(2df,p)

Title Card Required 

0  1
C           1.08792        -0.03454         0.03282
C           2.39178        -0.03454         0.03282
C           3.91178        -0.03454         0.03282
N           4.38672         1.00935        -0.85177
C           5.85484         1.02020        -0.86879
C           6.39663         2.14085        -1.79241
N           5.90901         3.46114        -1.36842
C           7.89963         2.14996        -1.82668
C           8.61044         3.00711        -2.57551
H           0.02248        -0.03431         0.02745
H           4.25421        -1.02199        -0.29717
H           4.25697         0.12747         1.06065
H           4.03564         1.89946        -0.50864
H           6.22858         0.04994        -1.22155
H           6.23531         1.16919         0.15116
H           6.02974         1.94613        -2.80906
H           6.17957         3.61385        -0.39949
H           4.89268         3.44934        -1.39411
H           8.43133         1.41657        -1.22616
H           8.10482         3.74684        -3.19007
H           9.69297         2.99221        -2.57851

