%chk=CtCCpdCpCtCC.chk
%NProcShared=20
# opt freq b3lyp/6-31g(2df,p)

Title Card Required 

0  1
C           1.01359         0.03779        -0.09158
C           2.31745         0.03779        -0.09158
C           3.83745         0.03779        -0.09158
C           4.50167         0.56651        -1.12644
C           4.56192        -0.53394         1.02747
C           5.16868        -1.01157         1.96234
C           5.90944        -1.59540         3.10507
H          -0.05131         0.03696        -0.08995
H           3.97963         0.99886        -1.97269
H           5.58689         0.57783        -1.14860
H           5.60730        -2.63079         3.30402
H           5.74483        -1.03210         4.03162
H           6.99188        -1.60818         2.92859

