%chk=CtCC1CC1CCdN.chk
%NProcShared=20
# opt freq b3lyp/6-31g(2df,p)

Title Card Required 

0  1
C           1.09439         0.07891         0.00363
C           2.29861         0.09047        -0.01900
C           3.73390         0.07809         0.04335
C           4.49291        -0.67387        -1.02475
C           4.54871         0.83443        -0.98854
C           5.80869         1.57284        -0.60882
C           5.60677         3.07204        -0.68022
N           6.52964         3.94702        -0.44466
H           0.03094         0.06206         0.06566
H           4.12369         0.03125         1.05569
H           3.92210        -1.14343        -1.82261
H           5.37079        -1.24840        -0.75345
H           4.03727         1.33483        -1.80377
H           6.61016         1.31834        -1.31313
H           6.15997         1.31399         0.39753
H           4.60754         3.43842        -0.96803
H           7.42029         3.50765        -0.19493

