%chk=CtCCNpCdOpNC.chk
%NProcShared=20
# opt freq b3lyp/6-31g(2df,p)

Title Card Required 

0  1
C           0.98034         0.07561         0.06243
C           2.28420         0.07561         0.06243
C           3.80420         0.07561         0.06243
N           4.22193         0.70812        -1.23976
C           3.30654         1.21634        -2.19132
O           2.07818         1.22378        -2.21524
N           5.64708         0.84019        -1.43777
C           6.02624         1.47842        -2.69786
H          -0.08428         0.08772         0.04085
H           4.19399        -0.94567         0.09550
H           4.19764         0.67246         0.88994
H           3.78209         1.66944        -3.05981
H           6.04976        -0.10039        -1.42178
H           5.64421         2.50579        -2.73720
H           5.64532         0.90450        -3.55196
H           7.11011         1.53605        -2.80181

