%chk=CtCCtCCOCdCO.chk
%NProcShared=20
# opt freq b3lyp/6-31g(2df,p)

Title Card Required 

0  1
C           1.07112        -0.09315         0.03203
C           2.28790        -0.09319         0.03195
C           3.84102        -0.09319         0.03195
C           5.14488        -0.09319         0.03195
C           6.66488        -0.09319         0.03195
O           7.15523        -0.68192        -1.18859
C           8.50954        -0.79206        -1.41692
C           9.01258        -1.32987        -2.53190
O          10.35580        -1.46971        -2.82181
H           0.00857        -0.09321         0.03190
H           7.02547        -0.66756         0.87534
H           7.02547         0.92441         0.10745
H           9.20643        -0.43723        -0.68129
H           8.31703        -1.69405        -3.28692
H          10.98696        -1.14080        -2.13992

