%chk=CtCCtCCdCCpCpdO.chk
%NProcShared=20
# opt freq b3lyp/6-31g(2df,p)

Title Card Required 

0  1
C           1.13825         0.07578         0.00291
C           2.33781         0.07580         0.00283
C           3.88902         0.07580         0.00283
C           5.19288         0.07580         0.00283
C           6.71288         0.07580         0.00283
C           7.40682         0.26400        -1.12864
C           8.90700         0.26945        -1.16142
C           9.67689         0.05639         0.11953
O           9.50412         0.44614        -2.22371
H           0.06701         0.07581         0.00274
H           7.18441        -0.08292         0.95701
H           6.89049         0.42084        -2.07158
H           9.02233        -0.08539         0.97191
H          10.29750         0.92667         0.33457
H          10.29750        -0.83665         0.04128

