%chk=CtCCNpCCpCCO.chk
%NProcShared=20
# opt freq b3lyp/6-31g(2df,p)

Title Card Required 

0  1
C           1.02935        -0.07000         0.06511
C           2.33321        -0.07000         0.06511
C           3.85321        -0.07000         0.06511
N           4.31405        -0.52922         1.39955
C           3.84401        -1.88786         1.77360
C           2.34337        -2.10934         1.96228
C           5.79083        -0.46690         1.43521
C           6.41474        -0.78144         2.80687
O           7.83702        -0.71228         2.73138
H          -0.03591        -0.06701         0.07146
H           4.20298         0.94624        -0.14792
H           4.21179        -0.74054        -0.72485
H           4.24484        -2.13312         2.76003
H           4.23134        -2.63100         1.06778
H           1.88570        -1.28569         2.52350
H           2.15040        -3.03131         2.51576
H           1.83812        -2.24978         1.00447
H           6.12654         0.54072         1.15322
H           6.22155        -1.14145         0.68263
H           6.17355        -1.78974         3.15328
H           6.06796        -0.06854         3.56044
H           8.12508        -1.43889         2.15878

