%chk=CtCC1NC1NCCdN.chk
%NProcShared=20
# opt freq b3lyp/6-31g(2df,p)

Title Card Required 

0  1
C           1.07248         0.06665        -0.15107
C           2.27682         0.07284        -0.17365
C           3.70672         0.11475        -0.06552
N           4.57222        -0.55824        -1.03730
C           4.50057         0.88255        -1.10358
N           5.74647         1.57379        -0.74990
C           5.53344         3.02290        -0.83877
C           6.78370         3.79290        -0.49104
N           6.83807         5.08798        -0.49572
H           0.00999         0.07022        -0.06555
H           4.08295         0.08671         0.95055
H           4.00498        -0.99754        -1.76228
H           3.97850         1.28134        -1.96846
H           6.48251         1.28987        -1.39872
H           4.74219         3.32566        -0.14499
H           5.24043         3.30278        -1.85658
H           7.69510         3.23003        -0.23596
H           5.93403         5.50501        -0.74549

