%chk=NC1CCCdCNC1.chk
%NProcShared=20
# opt freq b3lyp/6-31g(2df,p)

Title Card Required 

0  1
N           0.90444        -0.10652         0.07289
C           2.37736        -0.02464         0.00241
C           2.83185         1.32305         0.58339
C           2.40477         2.50566        -0.30230
C           3.29602         2.74677        -1.49740
C           4.07119         1.82787        -2.07439
N           4.06317         0.48412        -1.79810
C           2.84450        -0.23384        -1.45821
H           0.58302        -0.02859         1.03448
H           0.57147        -0.98883        -0.30671
H           2.78983        -0.82773         0.62666
H           3.92438         1.31899         0.71633
H           2.42530         1.44779         1.59542
H           2.41008         3.40902         0.31711
H           1.37534         2.37747        -0.65459
H           3.31712         3.76754        -1.87363
H           4.75096         2.09420        -2.88369
H           4.95493         0.00382        -1.75035
H           2.96856        -1.30271        -1.66515
H           2.05898         0.11109        -2.14405

