%chk=NC1CNdCpC2dNC2pC1.chk
%NProcShared=20
# opt freq b3lyp/6-31g(2df,p)

Title Card Required 

0  1
N           0.96631         0.12294        -0.05233
C           2.43543         0.10464        -0.06444
C           2.99397        -1.11449        -0.81492
N           3.22238        -0.68494        -2.20508
C           3.20965         0.61207        -2.15772
C           3.44539         1.35187        -3.35609
N           3.53664         2.43544        -3.99472
C           3.76486         1.06994        -4.67738
C           2.98345         1.28814        -0.85165
H           0.62698        -0.69271         0.45991
H           0.61480         0.00065        -1.00395
H           2.78045         0.11616         0.97429
H           2.29744        -1.95920        -0.81099
H           3.94180        -1.45238        -0.38238
H           4.78932         0.88490        -4.96033
H           2.99545         0.79713        -5.38284
H           2.28953         2.13019        -0.92845
H           3.93773         1.63752        -0.44470

