%chk=NC1CdNC2dCCC2dC1.chk
%NProcShared=20
# opt freq b3lyp/6-31g(2df,p)

Title Card Required 

0  1
N           0.93089        -0.00865        -0.23347
C           2.40003        -0.01487        -0.25983
C           2.88087         1.20958         0.57861
N           3.25851         1.20028         1.83191
C           3.40762        -0.06678         2.36575
C           3.64700        -0.73988         3.50532
C           3.66985        -2.09905         2.75546
C           3.26445        -1.25308         1.60061
C           2.84152        -1.30991         0.34520
H           0.58534         0.89791        -0.53800
H           0.64614        -0.08574         0.74872
H           2.78363         0.08459        -1.27772
H           2.82132         2.18518         0.06689
H           3.79179        -0.38584         4.51739
H           2.92865        -2.85372         3.04264
H           4.63724        -2.60115         2.63726
H           2.72048        -2.25522        -0.16571

