%chk=NC1dNCpdOpCpdOpO1.chk
%NProcShared=20
# opt freq b3lyp/6-31g(2df,p)

Title Card Required 

0  1
N           1.25464         0.11998        -0.02282
C           2.59393         0.01121        -0.08315
N           3.26087        -1.08874        -0.05570
C           4.55528        -0.65335        -0.13747
O           5.55973        -1.32324         0.02378
C           4.58855         0.85280        -0.38378
O           5.51276         1.55923        -0.71911
O           3.27598         1.18051        -0.21179
H           0.70417        -0.72826        -0.08064
H           0.76921         1.00638        -0.03159

