%chk=NCC1CC2NC12O.chk
%NProcShared=20
# opt freq b3lyp/6-31g(2df,p)

Title Card Required 

0  1
N           1.01991        -0.15883        -0.14723
C           2.48077        -0.09513        -0.09526
C           3.04157         0.64569         1.13699
C           2.60180         2.10268         1.14596
C           2.44865         2.07818         2.59010
N           1.79439         1.25690         3.47339
C           2.54435         0.41512         2.55864
O           1.58917        -0.65578         2.53760
H           0.70470        -0.53748        -1.03795
H           0.61167         0.77279        -0.07832
H           2.84014         0.40622        -1.00217
H           2.86776        -1.11872        -0.12487
H           4.13543         0.50934         1.15378
H           1.70300         2.36995         0.58544
H           3.40165         2.75850         0.77147
H           3.19337         2.70640         3.04952
H           0.80897         1.11332         3.27669
H           1.88328        -1.39436         1.97393

