%chk=NCCC1dC2NCC2dN1.chk
%NProcShared=20
# opt freq b3lyp/6-31g(2df,p)

Title Card Required 

0  1
N           0.96046         0.05544        -0.04971
C           2.41414         0.06962        -0.04585
C           2.93320         0.93413         1.10070
C           4.42047         0.97389         0.92888
C           5.50166         0.95622         1.69087
N           6.61962         0.93521         2.31423
C           7.43998         0.97806         1.20097
C           6.28488         0.96211         0.31351
N           5.14309         0.96524        -0.24578
H           0.65404        -0.49636        -0.84799
H           0.64042         1.00896        -0.21595
H           2.77503         0.44513        -1.01489
H           2.80600        -0.95089         0.05766
H           2.62691         0.59626         2.09434
H           2.56716         1.96009         0.96224
H           6.92045         0.95918         3.27919
H           8.05354         0.08481         1.08149
H           7.98940         1.91366         1.09450

