%chk=NdC1CCpNpCO1.chk
%NProcShared=20
# opt freq b3lyp/6-31g(2df,p)

Title Card Required 

0  1
N           1.22908        -0.11833        -0.01761
C           2.51042        -0.02733        -0.08462
C           3.33506         1.20735        -0.00360
C           4.46851         0.82274        -0.93359
N           4.12044         1.13571        -2.33030
C           4.58677        -0.68034        -0.68496
O           3.28269        -1.12090        -0.28948
H           0.80757         0.80865         0.08064
H           3.68772         1.32069         1.02838
H           2.79192         2.10755        -0.30063
H           5.39752         1.34883        -0.69389
H           3.28727         0.60617        -2.60406
H           4.85876         0.80027        -2.95021
H           5.30251        -0.90397         0.11350
H           4.88714        -1.23291        -1.58124

