%chk=NdC1NCC2OC2N1.chk
%NProcShared=20
# opt freq b3lyp/6-31g(2df,p)

Title Card Required 

0  1
N           1.23727         0.11715        -0.26068
C           2.48676         0.00095        -0.02138
N           2.95573        -1.15915         0.53292
C           3.96512        -1.07373         1.60772
C           4.98007        -0.05534         1.25641
O           5.29093         1.21003         1.69366
C           4.07834         1.35547         1.01523
N           3.45282         0.95908        -0.25868
H           0.81089        -0.76175         0.08205
H           3.29574        -1.75431        -0.22182
H           4.42781        -2.06163         1.70975
H           3.44410        -0.83761         2.53603
H           5.71309        -0.44215         0.56300
H           3.33780         1.77819         1.69275
H           3.10806         1.71628        -0.84047

