%chk=NdCC1dCCpCdOpdC1.chk
%NProcShared=20
# opt freq b3lyp/6-31g(2df,p)

Title Card Required 

0  1
N           0.84120        -0.03253        -0.03618
C           2.13175        -0.03957        -0.01558
C           2.93752        -0.37965         1.18627
C           4.34960        -0.36732         1.14669
C           5.12824        -0.73384         2.46452
C           6.64824        -0.73384         2.46452
O           7.37002        -0.99915         3.42005
C           2.24784        -0.73384         2.46452
H           0.51189         0.23154        -0.96962
H           2.70547         0.21687        -0.92377
H           4.92743        -0.11270         0.24414
H           7.09291        -0.46390         1.49235
H           1.36451        -0.88600         3.04661

