%chk=NdCc1ncccc1O.chk
%NProcShared=20
# opt freq b3lyp/6-31g(2df,p)

Title Card Required 

0  1
N           0.87675        -0.02489        -0.01879
C           2.17635         0.01395         0.03976
C           2.91647         0.21697         1.29899
N           3.96877         1.07636         1.20994
C           4.57584         1.39164         2.37577
C           4.18942         0.88938         3.61151
C           3.14482        -0.03186         3.66098
C           2.50710        -0.39397         2.48155
O           1.54857        -1.36457         2.48679
H           0.56990        -0.16954        -0.98231
H           2.77309        -0.07586        -0.88090
H           5.40516         2.09092         2.29695
H           4.69836         1.20020         4.51783
H           2.84416        -0.45357         4.61416
H           1.34306        -1.62845         3.39529

