%chk=NdCCC1dNCpdNpNdC1.chk
%NProcShared=20
# opt freq b3lyp/6-31g(2df,p)

Title Card Required 

0  1
N           1.08555         0.12899        -0.01530
C           2.37396         0.06297         0.03172
C           3.22364         0.85834        -0.91572
C           4.67655         0.61557        -0.72544
N           5.29513        -0.52171        -0.64443
C           6.59577        -0.12339        -0.47140
N           7.53143        -0.98298        -0.33256
N           6.84218         1.22176        -0.44500
C           5.67157         1.72490        -0.60871
H           0.67705        -0.49002         0.69846
H           2.87522        -0.57828         0.77659
H           2.99018         1.92078        -0.78604
H           2.95105         0.57895        -1.93937
H           7.09663        -1.90614        -0.39020
H           5.36472         2.77656        -0.65976

