%chk=NdCc1ccpCdOpco1.chk
%NProcShared=20
# opt freq b3lyp/6-31g(2df,p)

Title Card Required 

0  1
N           0.92461         0.06897        -0.09501
C           2.21249        -0.04068        -0.06373
C           2.90176        -0.54119        -1.21400
C           2.65261        -0.32767        -2.55038
C           3.54230        -1.15255        -3.27953
C           3.62766        -1.29401        -4.71248
O           2.92184        -0.65297        -5.48977
C           4.29843        -1.81076        -2.33133
O           3.94186        -1.41767        -1.07288
H           0.57167         0.43160         0.79436
H           2.78774         0.25315         0.82997
H           1.89284         0.33341        -2.94417
H           4.36755        -2.01495        -5.09217
H           5.08384        -2.55423        -2.38107

