%chk=NtCC1CCNNC1dN.chk
%NProcShared=20
# opt freq b3lyp/6-31g(2df,p)

Title Card Required 

0  1
N           0.92606         0.00346        -0.06724
C           2.18703         0.00346        -0.06724
C           3.70703         0.00346        -0.06724
C           4.21831        -1.38151        -0.45244
C           3.77646        -1.70765        -1.88210
N           4.28005        -0.70683        -2.82922
N           3.98888         0.61505        -2.43915
C           4.18132         0.97040        -1.12676
N           4.74010         2.08219        -0.76091
H           4.07704         0.29746         0.92042
H           3.84030        -2.14261         0.24032
H           5.31479        -1.40195        -0.39160
H           2.68465        -1.77951        -1.95085
H           4.17369        -2.68901        -2.16121
H           3.92375        -0.91269        -3.76652
H           3.42161         1.22476        -3.03078
H           5.06498         2.57919        -1.59557

