%chk=NtCC1CCCNdNC1.chk
%NProcShared=20
# opt freq b3lyp/6-31g(2df,p)

Title Card Required 

0  1
N           0.91141         0.03133         0.03421
C           2.17238         0.03133         0.03421
C           3.69238         0.03133         0.03421
C           4.20969        -1.27354        -0.56871
C           5.73415        -1.30264        -0.64629
C           6.37421        -0.49635         0.47168
N           6.50096         0.92740         0.14545
N           5.57542         1.66501        -0.25989
C           4.25217         1.22014        -0.72133
H           3.95439         0.10626         1.09623
H           3.80021        -1.42457        -1.57738
H           3.85173        -2.12188         0.02829
H           6.06616        -0.91819        -1.61846
H           6.06218        -2.34669        -0.59224
H           7.38903        -0.87557         0.63499
H           5.86603        -0.63168         1.43447
H           4.29094         1.02400        -1.80124
H           3.58307         2.08275        -0.60782

