%chk=NtCC1CC2OCpOpC12.chk
%NProcShared=20
# opt freq b3lyp/6-31g(2df,p)

Title Card Required 

0  1
N           1.01056        -0.03913        -0.03183
C           2.15211        -0.10272         0.04575
C           3.60198        -0.09009         0.01554
C           4.44247        -1.36490        -0.32947
C           4.04540        -1.14369        -1.75185
O           4.60184        -0.58785        -2.95804
C           3.76845         0.60487        -2.70109
O           4.32163         1.71655        -3.41186
C           4.12538         0.51799        -1.24673
H           4.02380         0.36154         0.92405
H           4.03376        -2.26214         0.14938
H           5.52802        -1.35644        -0.20536
H           3.20165        -1.80017        -2.00351
H           2.69025         0.51375        -2.88022
H           5.26988         1.49040        -3.44623
H           4.97577         1.17284        -1.03053

