%chk=NtCC1CpdOpC1CdO.chk
%NProcShared=20
# opt freq b3lyp/6-31g(2df,p)

Title Card Required 

0  1
N           1.04636         0.09315        -0.10770
C           2.20777         0.08301        -0.08815
C           3.63002         0.06858         0.00014
C           4.34429        -0.51812        -1.06052
O           4.84689        -1.55087        -1.42419
C           4.51553         0.87604        -1.11900
C           5.73487         1.58069        -0.69261
O           5.74092         2.80390        -0.64718
H           4.02743         0.01570         1.00403
H           3.98113         1.38304        -1.91003
H           6.63170         0.98668        -0.44403

