%chk=NtCC1CNCN1.chk
%NProcShared=20
# opt freq b3lyp/6-31g(2df,p)

Title Card Required 

0  1
N           1.05975        -0.04392        -0.06709
C           2.32071        -0.04392        -0.06709
C           3.84071        -0.04392        -0.06709
C           4.38339         1.07234         0.80987
N           5.72378         0.58790         1.12332
C           5.57343        -0.84107         1.31603
N           4.41013        -1.26653         0.54810
H           4.21285         0.04209        -1.09504
H           3.80078         1.20399         1.73064
H           4.42459         2.03040         0.28287
H           6.09287         1.02558         1.96378
H           5.41881        -1.06755         2.37806
H           6.47058        -1.37322         0.98667
H           3.73318        -1.66052         1.20082

