%chk=NtCC1dNOCdNC1.chk
%NProcShared=20
# opt freq b3lyp/6-31g(2df,p)

Title Card Required 

0  1
N           1.15614         0.02399         0.09054
C           2.31885         0.05212         0.07903
C           3.76059         0.02792         0.06192
N           4.30504         1.19702        -0.01223
O           5.72194         1.20394        -0.03249
C           6.35264         0.02123        -0.27844
N           5.86597        -1.16420        -0.23185
C           4.46632        -1.27484         0.16189
H           7.40860         0.21050        -0.52661
H           4.39901        -1.64057         1.19196
H           3.97062        -2.00042        -0.49086

