%chk=NtCC1NCC1NdCdN.chk
%NProcShared=20
# opt freq b3lyp/6-31g(2df,p)

Title Card Required 

0  1
N           1.11007         0.06368        -0.02420
C           2.27107         0.06632        -0.03641
C           3.72053         0.00767        -0.07645
N           4.41345         1.01736         0.78484
C           5.40229        -0.02725         1.16863
C           4.34713        -1.11411         0.80098
N           4.88567        -2.22907         0.02024
C           4.14145        -3.09967        -0.23321
N           3.47016        -4.00697        -0.55289
H           4.08646         0.04460        -1.11062
H           3.85844         1.36849         1.56740
H           5.69528         0.01995         2.22469
H           6.32832         0.01882         0.58016
H           3.77249        -1.42645         1.68286
H           2.52292        -3.99780        -0.16370

