%chk=NtCCtCC1CdCOC1.chk
%NProcShared=20
# opt freq b3lyp/6-31g(2df,p)

Title Card Required 

0  1
N           1.16436        -0.03320         0.05037
C           2.32622        -0.03450         0.04923
C           3.86090        -0.03341         0.04994
C           5.16476        -0.03341         0.04994
C           6.68476        -0.03341         0.04994
C           7.19742        -1.24785        -0.62109
C           8.16787        -0.87157        -1.44464
O           8.42250         0.48528        -1.50195
C           7.27870         1.06055        -0.82709
H           7.05326         0.02078         1.08037
H           6.87000        -2.26095        -0.44335
H           8.80401        -1.49380        -2.05080
H           6.57729         1.41273        -1.59517
H           7.58768         1.93044        -0.23622

