%chk=NtCC12CCpN1pN2.chk
%NProcShared=20
# opt freq b3lyp/6-31g(2df,p)

Title Card Required 

0  1
N           0.87972         0.04599        -0.14928
C           2.02543         0.14268        -0.11614
C           3.43296         0.25361         0.07747
C           4.20912         1.18769         1.01291
C           5.17799         0.05678         0.52873
N           4.08932        -0.93055         0.76966
N           4.56451         0.00111        -0.89988
H           3.84574         1.28460         2.03366
H           4.48595         2.15878         0.58736
H           6.18981        -0.13323         0.87548
H           3.82479        -1.07660         1.73963
H           4.43496        -0.91596        -1.31416

