%chk=NtCC1CCC2NC2N1.chk
%NProcShared=20
# opt freq b3lyp/6-31g(2df,p)

Title Card Required 

0  1
N           1.00417         0.09982         0.00423
C           2.26513         0.09982         0.00423
C           3.78513         0.09982         0.00423
C           4.32228        -1.27119        -0.43055
C           5.86879        -1.25698        -0.35942
C           6.33073        -0.24314        -1.33215
N           6.91061         1.04459        -1.46824
C           5.75974         1.19814        -0.68812
N           4.33133         1.16318        -0.91143
H           4.10116         0.31180         1.03494
H           3.99349        -1.47738        -1.46252
H           3.90658        -2.07105         0.19068
H           6.23342        -2.25350        -0.63387
H           6.20084        -1.04717         0.66238
H           6.12299        -0.61819        -2.32889
H           6.80872         1.44394        -2.39275
H           6.04102         1.62836         0.26577
H           4.07995         0.94843        -1.87591

