%chk=OCCC1CCC2dCN21.chk
%NProcShared=20
# opt freq b3lyp/6-31g(2df,p)

Title Card Required 

0  1
O           0.77471        -0.15156         0.19166
C           2.18243        -0.10798         0.09574
C           2.82143        -1.49475        -0.05838
C           4.37148        -1.45760        -0.08775
C           4.88026        -0.12133        -0.56689
C           5.69113        -0.31556        -1.79218
C           5.83056        -1.75173        -2.00960
C           5.67076        -3.01494        -1.82454
N           4.87175        -2.50357        -0.95136
H           0.49496         0.77943         0.10209
H           2.58858         0.39879         0.97855
H           2.35032         0.51825        -0.78409
H           2.43976        -1.96230        -0.97505
H           2.47905        -2.14523         0.75770
H           4.74811        -1.63151         0.93392
H           5.37459         0.42807         0.23714
H           4.10391         0.53376        -0.92496
H           6.64041         0.20880        -1.67440
H           5.16398         0.14436        -2.64094
H           5.93375        -3.95647        -2.24198

