%chk=OdC1CdC2CC23OC13.chk
%NProcShared=20
# opt freq b3lyp/6-31g(2df,p)

Title Card Required 

0  1
O           0.89444        -0.05111        -0.21340
C           2.06267        -0.05250         0.10176
C           2.90957        -1.12034         0.58379
C           3.92794        -0.49698         1.17457
C           4.89037         0.41718         1.76260
C           3.57556         0.90895         1.51100
O           3.23127         2.10715         0.88156
C           3.04930         1.00140         0.04274
H           2.80269        -2.15892         0.33152
H           5.72583         0.71873         1.14875
H           5.14172         0.21626         2.79873
H           3.66280         1.02271        -0.85231

