%chk=OdC1NCN2NC2N1.chk
%NProcShared=20
# opt freq b3lyp/6-31g(2df,p)

Title Card Required 

0  1
O           1.18672         0.09089        -0.43614
C           2.35355         0.04390        -0.15222
N           3.08210        -1.03638         0.21606
C           3.89994        -0.91328         1.38381
N           4.77785         0.22100         1.23702
N           5.08084         1.41764         1.44645
C           3.75089         1.33309         1.12816
N           3.19315         1.16938        -0.13978
H           2.88437        -1.92352        -0.23057
H           4.47367        -1.83339         1.51562
H           3.25767        -0.77225         2.26325
H           5.84984         1.92355         1.02031
H           3.50138         2.28492         1.58508
H           3.04623         1.90163        -0.82006

