%chk=OdC1CdCCNC2CC12.chk
%NProcShared=20
# opt freq b3lyp/6-31g(2df,p)

Title Card Required 

0  1
O           1.06948        -0.10481         0.06905
C           2.26789        -0.07185         0.26050
C           2.98251         1.15269         0.76889
C           4.32484         1.29960         0.84932
C           5.39486         0.31293         0.42470
N           5.36850        -0.88276         1.26853
C           4.02264        -1.47534         1.23941
C           3.56985        -2.54833         0.36404
C           3.17144        -1.18506        -0.07125
H           2.31603         1.91867         1.15033
H           4.70695         2.19318         1.33422
H           6.38769         0.77225         0.46268
H           5.27665         0.00668        -0.62182
H           5.62186        -0.60181         2.22079
H           3.53094        -1.49065         2.21579
H           2.77763        -3.21071         0.66511
H           4.38049        -3.01473        -0.19148
H           3.46467        -1.11410        -1.11458

