%chk=OdC1CC2NCNC2O1.chk
%NProcShared=20
# opt freq b3lyp/6-31g(2df,p)

Title Card Required 

0  1
O           1.04684         0.03949        -0.06125
C           2.26058         0.02678         0.08772
C           3.09326         1.21565         0.43710
C           4.39975         0.60292         0.89159
N           4.63659         0.73242         2.33359
C           3.95567        -0.40117         2.92765
N           4.11124        -1.48811         1.98413
C           4.23184        -0.88937         0.65980
O           3.02705        -1.08295        -0.05619
H           2.60315         1.80163         1.21979
H           3.23129         1.83409        -0.45423
H           5.25422         1.02449         0.35069
H           4.25702         1.60048         2.70493
H           2.89421        -0.16847         3.08114
H           4.39075        -0.65734         3.89658
H           3.27527        -2.07067         1.98828
H           5.07453        -1.33492         0.11951

