%chk=OdCC1NC2OC12O.chk
%NProcShared=20
# opt freq b3lyp/6-31g(2df,p)

Title Card Required 

0  1
O           1.00466         0.05118         0.00745
C           2.22435         0.12100        -0.08714
C           3.12454         1.40557        -0.26815
N           2.38114         2.62960         0.01546
C           3.43359         3.30210         0.71925
O           4.26234         2.80844         1.66402
C           4.13707         1.66715         0.85784
O           3.95371         0.62993         1.85813
H           2.80586        -0.81940        -0.04383
H           3.64042         1.39002        -1.23495
H           1.54425         2.51049         0.58570
H           3.88506         4.09915         0.14014
H           4.25580        -0.23740         1.53829

