%chk=OdCC12CCCOC1N2.chk
%NProcShared=20
# opt freq b3lyp/6-31g(2df,p)

Title Card Required 

0  1
O           1.16238         0.00323         0.43759
C           2.36927        -0.07478         0.50790
C           3.05908        -1.31839         0.96024
C           3.04918        -2.37750        -0.10232
C           2.61355        -3.67685         0.54027
C           3.76879        -4.05673         1.43982
O           3.77422        -3.20713         2.59801
C           3.29785        -1.82683         2.40489
N           4.27172        -0.99924         1.73408
H           3.02648         0.66390        -0.00061
H           4.03679        -2.44428        -0.57462
H           2.34147        -2.12076        -0.89824
H           2.38607        -4.42925        -0.21529
H           1.70811        -3.50956         1.14356
H           4.73369        -3.93504         0.92741
H           3.69933        -5.10654         1.73758
H           2.86891        -1.36361         3.28870
H           5.06628        -1.59696         1.52580

