%chk=OdCC1CCCCN1.chk
%NProcShared=20
# opt freq b3lyp/6-31g(2df,p)

Title Card Required 

0  1
O           0.97511         0.17695        -0.12092
C           2.20007         0.09529        -0.05339
C           2.96701        -1.00227         0.67456
C           2.35837        -2.35648         0.30331
C           2.99792        -3.49598         1.08509
C           2.98868        -3.18785         2.57846
C           3.60109        -1.81809         2.86471
N           2.90906        -0.76304         2.12620
H           2.83022         0.86482        -0.52897
H           4.00978        -0.95540         0.33361
H           2.47200        -2.53395        -0.77302
H           1.27911        -2.35071         0.50448
H           4.03012        -3.64220         0.74488
H           2.45675        -4.42815         0.88933
H           3.54249        -3.96355         3.11833
H           1.95575        -3.21338         2.94897
H           4.66700        -1.81809         2.60628
H           3.52996        -1.60900         3.93748
H           3.30825         0.14453         2.36014

