%chk=OdCC1dC2NN2CC1.chk
%NProcShared=20
# opt freq b3lyp/6-31g(2df,p)

Title Card Required 

0  1
O           1.05337        -0.11662         0.01832
C           2.26353        -0.02998         0.14788
C           2.94728        -0.53214         1.35113
C           3.96566         0.03946         2.00474
N           5.04236        -0.28200         2.79511
N           3.90404        -0.60885         3.31986
C           3.25580        -1.91951         3.19234
C           2.41274        -1.78067         1.94470
H           2.91126         0.34031        -0.66451
H           5.43592         0.57500         3.20118
H           2.60350        -2.07454         4.05700
H           3.92364        -2.79093         3.12626
H           1.35627        -1.66794         2.20174
H           2.54880        -2.61956         1.25851

