%chk=OdCC1CdCNdCO1.chk
%NProcShared=20
# opt freq b3lyp/6-31g(2df,p)

Title Card Required 

0  1
O           0.92310        -0.12647        -0.07341
C           2.15178        -0.08680        -0.01855
C           2.93171         0.42106         1.18186
C           4.28919        -0.18747         1.15012
C           5.36600         0.59426         1.08236
N           5.29877         1.95251         1.05038
C           4.12802         2.49180         1.07744
O           2.94116         1.85248         1.12330
H           2.75219        -0.36806        -0.90131
H           2.41340         0.12190         2.09853
H           4.38706        -1.26732         1.17660
H           6.36342         0.16220         1.05551
H           3.97993         3.58229         1.06007

